
*** ChampSim Multicore Out-of-Order Simulator ***

Warmup Instructions: 100000000
Simulation Instructions: 1000000000
Number of CPUs: 1
LLC sets: 2048
LLC ways: 16
Off-chip DRAM Size: 4096 MB Channels: 1 Width: 64-bit Data Rate: 3200 MT/s

CPU 0 runs /scratch/user/kevin.weston/dpc3-traces/410.champsimtrace.xz
CPU 0 Bimodal branch predictor
Initialize RRPV
Initialize PRRIP state
Heartbeat CPU 0 instructions: 10000002 cycles: 5770763 heartbeat IPC: 1.73287 cumulative IPC: 1.73287 (Simulation time: 0 hr 0 min 30 sec) 
Heartbeat CPU 0 instructions: 20000000 cycles: 11541605 heartbeat IPC: 1.73285 cumulative IPC: 1.73286 (Simulation time: 0 hr 1 min 1 sec) 
Heartbeat CPU 0 instructions: 30000000 cycles: 17312645 heartbeat IPC: 1.73279 cumulative IPC: 1.73284 (Simulation time: 0 hr 1 min 31 sec) 
Heartbeat CPU 0 instructions: 40000000 cycles: 23083623 heartbeat IPC: 1.73281 cumulative IPC: 1.73283 (Simulation time: 0 hr 2 min 2 sec) 
Heartbeat CPU 0 instructions: 50000000 cycles: 28854599 heartbeat IPC: 1.73281 cumulative IPC: 1.73283 (Simulation time: 0 hr 2 min 32 sec) 
Heartbeat CPU 0 instructions: 60000003 cycles: 34625291 heartbeat IPC: 1.73289 cumulative IPC: 1.73284 (Simulation time: 0 hr 3 min 3 sec) 
Heartbeat CPU 0 instructions: 70000000 cycles: 40395829 heartbeat IPC: 1.73294 cumulative IPC: 1.73285 (Simulation time: 0 hr 3 min 34 sec) 
Heartbeat CPU 0 instructions: 80000001 cycles: 46166369 heartbeat IPC: 1.73294 cumulative IPC: 1.73286 (Simulation time: 0 hr 4 min 4 sec) 
Heartbeat CPU 0 instructions: 90000000 cycles: 51936882 heartbeat IPC: 1.73295 cumulative IPC: 1.73287 (Simulation time: 0 hr 4 min 35 sec) 
Heartbeat CPU 0 instructions: 100000002 cycles: 57707350 heartbeat IPC: 1.73296 cumulative IPC: 1.73288 (Simulation time: 0 hr 5 min 5 sec) 

Warmup complete CPU 0 instructions: 100000002 cycles: 57707350 (Simulation time: 0 hr 5 min 6 sec) 

Heartbeat CPU 0 instructions: 110000000 cycles: 71848215 heartbeat IPC: 0.70717 cumulative IPC: 0.70717 (Simulation time: 0 hr 5 min 35 sec) 
Heartbeat CPU 0 instructions: 120000001 cycles: 85924053 heartbeat IPC: 0.710437 cumulative IPC: 0.7088 (Simulation time: 0 hr 6 min 4 sec) 
Heartbeat CPU 0 instructions: 130000000 cycles: 100036016 heartbeat IPC: 0.708619 cumulative IPC: 0.70874 (Simulation time: 0 hr 6 min 34 sec) 
Heartbeat CPU 0 instructions: 140000000 cycles: 114097887 heartbeat IPC: 0.711143 cumulative IPC: 0.709339 (Simulation time: 0 hr 7 min 3 sec) 
Heartbeat CPU 0 instructions: 150000000 cycles: 128158921 heartbeat IPC: 0.711185 cumulative IPC: 0.709707 (Simulation time: 0 hr 7 min 33 sec) 
Heartbeat CPU 0 instructions: 160000002 cycles: 142249319 heartbeat IPC: 0.709703 cumulative IPC: 0.709707 (Simulation time: 0 hr 8 min 2 sec) 
Heartbeat CPU 0 instructions: 170000003 cycles: 156370338 heartbeat IPC: 0.708164 cumulative IPC: 0.709486 (Simulation time: 0 hr 8 min 32 sec) 
Heartbeat CPU 0 instructions: 180000001 cycles: 170418234 heartbeat IPC: 0.71185 cumulative IPC: 0.709781 (Simulation time: 0 hr 9 min 2 sec) 
Heartbeat CPU 0 instructions: 190000003 cycles: 184543431 heartbeat IPC: 0.707955 cumulative IPC: 0.709577 (Simulation time: 0 hr 9 min 31 sec) 
Heartbeat CPU 0 instructions: 200000003 cycles: 198735050 heartbeat IPC: 0.704641 cumulative IPC: 0.709081 (Simulation time: 0 hr 10 min 1 sec) 
Heartbeat CPU 0 instructions: 210000003 cycles: 212910331 heartbeat IPC: 0.705453 cumulative IPC: 0.708749 (Simulation time: 0 hr 10 min 31 sec) 
Heartbeat CPU 0 instructions: 220000000 cycles: 227114576 heartbeat IPC: 0.704015 cumulative IPC: 0.708352 (Simulation time: 0 hr 11 min 0 sec) 
Heartbeat CPU 0 instructions: 230000000 cycles: 241250345 heartbeat IPC: 0.707425 cumulative IPC: 0.708281 (Simulation time: 0 hr 11 min 30 sec) 
Heartbeat CPU 0 instructions: 240000002 cycles: 255358134 heartbeat IPC: 0.708828 cumulative IPC: 0.70832 (Simulation time: 0 hr 11 min 59 sec) 
Heartbeat CPU 0 instructions: 250000000 cycles: 269480326 heartbeat IPC: 0.708105 cumulative IPC: 0.708306 (Simulation time: 0 hr 12 min 29 sec) 
Heartbeat CPU 0 instructions: 260000001 cycles: 283556743 heartbeat IPC: 0.710408 cumulative IPC: 0.708437 (Simulation time: 0 hr 12 min 59 sec) 
Heartbeat CPU 0 instructions: 270000001 cycles: 297710647 heartbeat IPC: 0.706519 cumulative IPC: 0.708324 (Simulation time: 0 hr 13 min 28 sec) 
Heartbeat CPU 0 instructions: 280000002 cycles: 311858890 heartbeat IPC: 0.706802 cumulative IPC: 0.708239 (Simulation time: 0 hr 13 min 58 sec) 
Heartbeat CPU 0 instructions: 290000000 cycles: 325983619 heartbeat IPC: 0.707978 cumulative IPC: 0.708225 (Simulation time: 0 hr 14 min 28 sec) 
Heartbeat CPU 0 instructions: 300000001 cycles: 340211129 heartbeat IPC: 0.702864 cumulative IPC: 0.707955 (Simulation time: 0 hr 14 min 58 sec) 
Heartbeat CPU 0 instructions: 310000001 cycles: 354323032 heartbeat IPC: 0.708622 cumulative IPC: 0.707987 (Simulation time: 0 hr 15 min 27 sec) 
Heartbeat CPU 0 instructions: 320000002 cycles: 368476864 heartbeat IPC: 0.706523 cumulative IPC: 0.70792 (Simulation time: 0 hr 15 min 57 sec) 
Heartbeat CPU 0 instructions: 330000000 cycles: 382591792 heartbeat IPC: 0.70847 cumulative IPC: 0.707944 (Simulation time: 0 hr 16 min 27 sec) 
Heartbeat CPU 0 instructions: 340000000 cycles: 396698607 heartbeat IPC: 0.708877 cumulative IPC: 0.707983 (Simulation time: 0 hr 16 min 57 sec) 
Heartbeat CPU 0 instructions: 350000001 cycles: 418833888 heartbeat IPC: 0.451768 cumulative IPC: 0.692278 (Simulation time: 0 hr 17 min 26 sec) 
Heartbeat CPU 0 instructions: 360000002 cycles: 445347114 heartbeat IPC: 0.37717 cumulative IPC: 0.670726 (Simulation time: 0 hr 17 min 55 sec) 
Heartbeat CPU 0 instructions: 370000003 cycles: 467662858 heartbeat IPC: 0.448114 cumulative IPC: 0.658608 (Simulation time: 0 hr 18 min 24 sec) 
Heartbeat CPU 0 instructions: 380000000 cycles: 486678361 heartbeat IPC: 0.525887 cumulative IPC: 0.652725 (Simulation time: 0 hr 18 min 54 sec) 
Heartbeat CPU 0 instructions: 390000000 cycles: 500849036 heartbeat IPC: 0.705683 cumulative IPC: 0.654418 (Simulation time: 0 hr 19 min 24 sec) 
Heartbeat CPU 0 instructions: 400000002 cycles: 515197530 heartbeat IPC: 0.696937 cumulative IPC: 0.655752 (Simulation time: 0 hr 19 min 54 sec) 
Heartbeat CPU 0 instructions: 410000003 cycles: 529529396 heartbeat IPC: 0.697746 cumulative IPC: 0.657027 (Simulation time: 0 hr 20 min 24 sec) 
Heartbeat CPU 0 instructions: 420000002 cycles: 543816935 heartbeat IPC: 0.699911 cumulative IPC: 0.658288 (Simulation time: 0 hr 20 min 54 sec) 
Heartbeat CPU 0 instructions: 430000003 cycles: 558164676 heartbeat IPC: 0.696974 cumulative IPC: 0.659397 (Simulation time: 0 hr 21 min 24 sec) 
Heartbeat CPU 0 instructions: 440000000 cycles: 572458734 heartbeat IPC: 0.699591 cumulative IPC: 0.660513 (Simulation time: 0 hr 21 min 55 sec) 
Heartbeat CPU 0 instructions: 450000002 cycles: 586681500 heartbeat IPC: 0.703098 cumulative IPC: 0.661658 (Simulation time: 0 hr 22 min 25 sec) 
Heartbeat CPU 0 instructions: 460000000 cycles: 600914608 heartbeat IPC: 0.702587 cumulative IPC: 0.66273 (Simulation time: 0 hr 22 min 54 sec) 
Heartbeat CPU 0 instructions: 470000002 cycles: 615166739 heartbeat IPC: 0.70165 cumulative IPC: 0.663725 (Simulation time: 0 hr 23 min 24 sec) 
Heartbeat CPU 0 instructions: 480000000 cycles: 629443421 heartbeat IPC: 0.700443 cumulative IPC: 0.664642 (Simulation time: 0 hr 23 min 53 sec) 
Heartbeat CPU 0 instructions: 490000001 cycles: 643708966 heartbeat IPC: 0.70099 cumulative IPC: 0.665527 (Simulation time: 0 hr 24 min 23 sec) 
Heartbeat CPU 0 instructions: 500000000 cycles: 658011594 heartbeat IPC: 0.699172 cumulative IPC: 0.666329 (Simulation time: 0 hr 24 min 52 sec) 
Heartbeat CPU 0 instructions: 510000000 cycles: 672254252 heartbeat IPC: 0.702116 cumulative IPC: 0.667158 (Simulation time: 0 hr 25 min 22 sec) 
Heartbeat CPU 0 instructions: 520000002 cycles: 686572005 heartbeat IPC: 0.698434 cumulative IPC: 0.66787 (Simulation time: 0 hr 25 min 51 sec) 
Heartbeat CPU 0 instructions: 530000000 cycles: 700804166 heartbeat IPC: 0.702634 cumulative IPC: 0.66864 (Simulation time: 0 hr 26 min 20 sec) 
Heartbeat CPU 0 instructions: 540000002 cycles: 715055313 heartbeat IPC: 0.701698 cumulative IPC: 0.669356 (Simulation time: 0 hr 26 min 49 sec) 
Heartbeat CPU 0 instructions: 550000000 cycles: 729353894 heartbeat IPC: 0.69937 cumulative IPC: 0.669995 (Simulation time: 0 hr 27 min 18 sec) 
Heartbeat CPU 0 instructions: 560000002 cycles: 743642447 heartbeat IPC: 0.699861 cumulative IPC: 0.670617 (Simulation time: 0 hr 27 min 47 sec) 
Heartbeat CPU 0 instructions: 570000002 cycles: 757895901 heartbeat IPC: 0.701584 cumulative IPC: 0.671248 (Simulation time: 0 hr 28 min 16 sec) 
Heartbeat CPU 0 instructions: 580000000 cycles: 772178572 heartbeat IPC: 0.700149 cumulative IPC: 0.671826 (Simulation time: 0 hr 28 min 45 sec) 
Heartbeat CPU 0 instructions: 590000002 cycles: 786507550 heartbeat IPC: 0.697887 cumulative IPC: 0.672338 (Simulation time: 0 hr 29 min 14 sec) 
Heartbeat CPU 0 instructions: 600000002 cycles: 800846532 heartbeat IPC: 0.6974 cumulative IPC: 0.672821 (Simulation time: 0 hr 29 min 43 sec) 
Heartbeat CPU 0 instructions: 610000001 cycles: 815240205 heartbeat IPC: 0.69475 cumulative IPC: 0.673238 (Simulation time: 0 hr 30 min 12 sec) 
Heartbeat CPU 0 instructions: 620000000 cycles: 829543872 heartbeat IPC: 0.699121 cumulative IPC: 0.673718 (Simulation time: 0 hr 30 min 41 sec) 
Heartbeat CPU 0 instructions: 630000002 cycles: 843801140 heartbeat IPC: 0.701397 cumulative IPC: 0.67422 (Simulation time: 0 hr 31 min 10 sec) 
Heartbeat CPU 0 instructions: 640000000 cycles: 858090641 heartbeat IPC: 0.699814 cumulative IPC: 0.674677 (Simulation time: 0 hr 31 min 38 sec) 
Heartbeat CPU 0 instructions: 650000001 cycles: 872304790 heartbeat IPC: 0.703524 cumulative IPC: 0.67518 (Simulation time: 0 hr 32 min 7 sec) 
Heartbeat CPU 0 instructions: 660000000 cycles: 886507918 heartbeat IPC: 0.70407 cumulative IPC: 0.675675 (Simulation time: 0 hr 32 min 36 sec) 
Heartbeat CPU 0 instructions: 670000002 cycles: 900808296 heartbeat IPC: 0.699282 cumulative IPC: 0.676076 (Simulation time: 0 hr 33 min 5 sec) 
Heartbeat CPU 0 instructions: 680000001 cycles: 915080927 heartbeat IPC: 0.700642 cumulative IPC: 0.676485 (Simulation time: 0 hr 33 min 34 sec) 
Heartbeat CPU 0 instructions: 690000000 cycles: 929363581 heartbeat IPC: 0.70015 cumulative IPC: 0.676872 (Simulation time: 0 hr 34 min 2 sec) 
Heartbeat CPU 0 instructions: 700000003 cycles: 943633999 heartbeat IPC: 0.700751 cumulative IPC: 0.677257 (Simulation time: 0 hr 34 min 31 sec) 
Heartbeat CPU 0 instructions: 710000001 cycles: 957954706 heartbeat IPC: 0.698289 cumulative IPC: 0.677592 (Simulation time: 0 hr 35 min 0 sec) 
Heartbeat CPU 0 instructions: 720000000 cycles: 972229832 heartbeat IPC: 0.700519 cumulative IPC: 0.677949 (Simulation time: 0 hr 35 min 29 sec) 
Heartbeat CPU 0 instructions: 730000001 cycles: 986517979 heartbeat IPC: 0.699881 cumulative IPC: 0.678287 (Simulation time: 0 hr 35 min 57 sec) 
Heartbeat CPU 0 instructions: 740000002 cycles: 1005914631 heartbeat IPC: 0.515553 cumulative IPC: 0.674958 (Simulation time: 0 hr 36 min 25 sec) 
Heartbeat CPU 0 instructions: 750000000 cycles: 1031007447 heartbeat IPC: 0.39852 cumulative IPC: 0.667831 (Simulation time: 0 hr 36 min 51 sec) 
Heartbeat CPU 0 instructions: 760000000 cycles: 1056320384 heartbeat IPC: 0.395055 cumulative IPC: 0.660917 (Simulation time: 0 hr 37 min 20 sec) 
Heartbeat CPU 0 instructions: 770000000 cycles: 1085059143 heartbeat IPC: 0.347962 cumulative IPC: 0.652162 (Simulation time: 0 hr 37 min 55 sec) 
Heartbeat CPU 0 instructions: 780000000 cycles: 1113783717 heartbeat IPC: 0.348134 cumulative IPC: 0.643893 (Simulation time: 0 hr 38 min 29 sec) 
Heartbeat CPU 0 instructions: 790000003 cycles: 1134665853 heartbeat IPC: 0.478878 cumulative IPC: 0.640693 (Simulation time: 0 hr 38 min 56 sec) 
Heartbeat CPU 0 instructions: 800000001 cycles: 1151054096 heartbeat IPC: 0.610193 cumulative IPC: 0.640236 (Simulation time: 0 hr 39 min 15 sec) 
Heartbeat CPU 0 instructions: 810000001 cycles: 1180516455 heartbeat IPC: 0.339416 cumulative IPC: 0.632343 (Simulation time: 0 hr 39 min 44 sec) 
Heartbeat CPU 0 instructions: 820000001 cycles: 1206408431 heartbeat IPC: 0.38622 cumulative IPC: 0.626795 (Simulation time: 0 hr 40 min 14 sec) 
Heartbeat CPU 0 instructions: 830000001 cycles: 1233547654 heartbeat IPC: 0.36847 cumulative IPC: 0.620833 (Simulation time: 0 hr 40 min 46 sec) 
Heartbeat CPU 0 instructions: 840000003 cycles: 1253505495 heartbeat IPC: 0.501056 cumulative IPC: 0.618834 (Simulation time: 0 hr 41 min 16 sec) 
Heartbeat CPU 0 instructions: 850000003 cycles: 1267779134 heartbeat IPC: 0.700592 cumulative IPC: 0.619798 (Simulation time: 0 hr 41 min 45 sec) 
Heartbeat CPU 0 instructions: 860000002 cycles: 1281874697 heartbeat IPC: 0.709443 cumulative IPC: 0.62083 (Simulation time: 0 hr 42 min 14 sec) 
Heartbeat CPU 0 instructions: 870000002 cycles: 1296040090 heartbeat IPC: 0.705946 cumulative IPC: 0.621804 (Simulation time: 0 hr 42 min 43 sec) 
Heartbeat CPU 0 instructions: 880000000 cycles: 1310155677 heartbeat IPC: 0.708437 cumulative IPC: 0.62278 (Simulation time: 0 hr 43 min 12 sec) 
Heartbeat CPU 0 instructions: 890000003 cycles: 1324355936 heartbeat IPC: 0.704213 cumulative IPC: 0.623693 (Simulation time: 0 hr 43 min 41 sec) 
Heartbeat CPU 0 instructions: 900000000 cycles: 1338510207 heartbeat IPC: 0.7065 cumulative IPC: 0.624608 (Simulation time: 0 hr 44 min 10 sec) 
Heartbeat CPU 0 instructions: 910000003 cycles: 1352644388 heartbeat IPC: 0.707505 cumulative IPC: 0.625513 (Simulation time: 0 hr 44 min 39 sec) 
Heartbeat CPU 0 instructions: 920000002 cycles: 1366755293 heartbeat IPC: 0.708672 cumulative IPC: 0.626409 (Simulation time: 0 hr 45 min 8 sec) 
Heartbeat CPU 0 instructions: 930000001 cycles: 1380917714 heartbeat IPC: 0.706094 cumulative IPC: 0.627262 (Simulation time: 0 hr 45 min 37 sec) 
Heartbeat CPU 0 instructions: 940000001 cycles: 1395098826 heartbeat IPC: 0.705163 cumulative IPC: 0.628088 (Simulation time: 0 hr 46 min 6 sec) 
Heartbeat CPU 0 instructions: 950000000 cycles: 1409239912 heartbeat IPC: 0.707159 cumulative IPC: 0.628916 (Simulation time: 0 hr 46 min 35 sec) 
Heartbeat CPU 0 instructions: 960000000 cycles: 1423423519 heartbeat IPC: 0.705039 cumulative IPC: 0.629706 (Simulation time: 0 hr 47 min 4 sec) 
Heartbeat CPU 0 instructions: 970000002 cycles: 1437565387 heartbeat IPC: 0.70712 cumulative IPC: 0.6305 (Simulation time: 0 hr 47 min 33 sec) 
Heartbeat CPU 0 instructions: 980000002 cycles: 1451736893 heartbeat IPC: 0.705641 cumulative IPC: 0.631263 (Simulation time: 0 hr 48 min 2 sec) 
Heartbeat CPU 0 instructions: 990000000 cycles: 1465820901 heartbeat IPC: 0.710025 cumulative IPC: 0.632051 (Simulation time: 0 hr 48 min 31 sec) 
Heartbeat CPU 0 instructions: 1000000001 cycles: 1479954502 heartbeat IPC: 0.707534 cumulative IPC: 0.632801 (Simulation time: 0 hr 49 min 0 sec) 
Heartbeat CPU 0 instructions: 1010000001 cycles: 1494085184 heartbeat IPC: 0.70768 cumulative IPC: 0.633538 (Simulation time: 0 hr 49 min 29 sec) 
Heartbeat CPU 0 instructions: 1020000002 cycles: 1508221566 heartbeat IPC: 0.707395 cumulative IPC: 0.634258 (Simulation time: 0 hr 49 min 58 sec) 
Heartbeat CPU 0 instructions: 1030000001 cycles: 1522312318 heartbeat IPC: 0.709685 cumulative IPC: 0.634983 (Simulation time: 0 hr 50 min 27 sec) 
Heartbeat CPU 0 instructions: 1040000000 cycles: 1536475398 heartbeat IPC: 0.706061 cumulative IPC: 0.635664 (Simulation time: 0 hr 50 min 56 sec) 
Heartbeat CPU 0 instructions: 1050000000 cycles: 1550696215 heartbeat IPC: 0.703194 cumulative IPC: 0.636307 (Simulation time: 0 hr 51 min 25 sec) 
Heartbeat CPU 0 instructions: 1060000003 cycles: 1564866798 heartbeat IPC: 0.705687 cumulative IPC: 0.63696 (Simulation time: 0 hr 51 min 54 sec) 
Heartbeat CPU 0 instructions: 1070000001 cycles: 1579106129 heartbeat IPC: 0.70228 cumulative IPC: 0.637571 (Simulation time: 0 hr 52 min 23 sec) 
Heartbeat CPU 0 instructions: 1080000001 cycles: 1593215559 heartbeat IPC: 0.708746 cumulative IPC: 0.638225 (Simulation time: 0 hr 52 min 52 sec) 
Heartbeat CPU 0 instructions: 1090000000 cycles: 1607321169 heartbeat IPC: 0.708938 cumulative IPC: 0.638869 (Simulation time: 0 hr 53 min 21 sec) 
Heartbeat CPU 0 instructions: 1100000000 cycles: 1621452942 heartbeat IPC: 0.707625 cumulative IPC: 0.63949 (Simulation time: 0 hr 53 min 50 sec) 
Finished CPU 0 instructions: 1000000000 cycles: 1563745602 cumulative IPC: 0.63949 (Simulation time: 0 hr 53 min 50 sec) 

ChampSim completed all CPUs

Region of Interest Statistics

CPU 0 cumulative IPC: 0.63949 instructions: 1000000000 cycles: 1563745602
L1D TOTAL     ACCESS:  437771130  HIT:  418305370  MISS:   19465760
L1D LOAD      ACCESS:  367700781  HIT:  348643840  MISS:   19056941
L1D RFO       ACCESS:   70070349  HIT:   69661530  MISS:     408819
L1D PREFETCH  ACCESS:          0  HIT:          0  MISS:          0
L1D WRITEBACK ACCESS:          0  HIT:          0  MISS:          0
L1D PREFETCH  REQUESTED:          0  ISSUED:          0  USEFUL:          0  USELESS:          0
L1D AVERAGE MISS LATENCY: 292.018 cycles
L1I TOTAL     ACCESS:  152464279  HIT:  152464191  MISS:         88
L1I LOAD      ACCESS:  152464279  HIT:  152464191  MISS:         88
L1I RFO       ACCESS:          0  HIT:          0  MISS:          0
L1I PREFETCH  ACCESS:          0  HIT:          0  MISS:          0
L1I WRITEBACK ACCESS:          0  HIT:          0  MISS:          0
L1I PREFETCH  REQUESTED:          0  ISSUED:          0  USEFUL:          0  USELESS:          0
L1I AVERAGE MISS LATENCY: 213.307 cycles
L2C TOTAL     ACCESS:   20550980  HIT:    1903439  MISS:   18647541
L2C LOAD      ACCESS:   19057029  HIT:     818337  MISS:   18238692
L2C RFO       ACCESS:     408819  HIT:          0  MISS:     408819
L2C PREFETCH  ACCESS:          0  HIT:          0  MISS:          0
L2C WRITEBACK ACCESS:    1085132  HIT:    1085102  MISS:         30
L2C PREFETCH  REQUESTED:          0  ISSUED:          0  USEFUL:          0  USELESS:          0
L2C AVERAGE MISS LATENCY: 287.869 cycles
LLC TOTAL     ACCESS:   19732561  HIT:     121933  MISS:   19610628
LLC LOAD      ACCESS:   18238692  HIT:      61091  MISS:   18177601
LLC RFO       ACCESS:     408819  HIT:          1  MISS:     408818
LLC PREFETCH  ACCESS:          0  HIT:          0  MISS:          0
LLC WRITEBACK ACCESS:    1085050  HIT:      60841  MISS:    1024209
LLC PREFETCH  REQUESTED:          0  ISSUED:          0  USEFUL:          0  USELESS:          0
LLC AVERAGE MISS LATENCY: 244.419 cycles
Major fault: 0 Minor fault: 108280
==============================
Perceptron RRIP Stats:
   Num Updates: 21582037
   Num Trains:  15077
==============================
perceptron #0: -1 -1 1 1 -1 1 1 -1 1 1 1 1 3 -3 1 -17 


DRAM Statistics
 CHANNEL 0
 RQ ROW_BUFFER_HIT:   12431318  ROW_BUFFER_MISS:    6155098
 DBUS_CONGESTED:    1243637
 WQ ROW_BUFFER_HIT:     601006  ROW_BUFFER_MISS:     462056  FULL:          0

 AVG_CONGESTED_CYCLE: 5

CPU 0 Branch Prediction Accuracy: 85.1428% MPKI: 5.85696 Average ROB Occupancy at Mispredict: 129.878

Branch types
NOT_BRANCH: 960578062 96.0578%
BRANCH_DIRECT_JUMP: 5163018 0.516302%
BRANCH_INDIRECT: 0 0%
BRANCH_CONDITIONAL: 34258555 3.42586%
BRANCH_DIRECT_CALL: 2 2e-07%
BRANCH_INDIRECT_CALL: 0 0%
BRANCH_RETURN: 2 2e-07%
BRANCH_OTHER: 0 0%

