
*** ChampSim Multicore Out-of-Order Simulator ***

Warmup Instructions: 100000000
Simulation Instructions: 1000000000
Number of CPUs: 1
LLC sets: 2048
LLC ways: 16
Off-chip DRAM Size: 4096 MB Channels: 1 Width: 64-bit Data Rate: 3200 MT/s

CPU 0 runs /scratch/user/kevin.weston/dpc3-traces/429.champsimtrace.xz
CPU 0 Bimodal branch predictor
Initialize RRPV
Initialize PRRIP state
Heartbeat CPU 0 instructions: 10000002 cycles: 3654842 heartbeat IPC: 2.7361 cumulative IPC: 2.7361 (Simulation time: 0 hr 0 min 23 sec) 
Heartbeat CPU 0 instructions: 20000000 cycles: 7574203 heartbeat IPC: 2.55144 cumulative IPC: 2.64054 (Simulation time: 0 hr 0 min 46 sec) 
Heartbeat CPU 0 instructions: 30000003 cycles: 11187412 heartbeat IPC: 2.76762 cumulative IPC: 2.68159 (Simulation time: 0 hr 1 min 9 sec) 
Heartbeat CPU 0 instructions: 40000001 cycles: 14802103 heartbeat IPC: 2.76649 cumulative IPC: 2.70232 (Simulation time: 0 hr 1 min 32 sec) 
Heartbeat CPU 0 instructions: 50000002 cycles: 18418235 heartbeat IPC: 2.76539 cumulative IPC: 2.7147 (Simulation time: 0 hr 1 min 55 sec) 
Heartbeat CPU 0 instructions: 60000000 cycles: 22221014 heartbeat IPC: 2.62966 cumulative IPC: 2.70015 (Simulation time: 0 hr 2 min 18 sec) 
Heartbeat CPU 0 instructions: 70000003 cycles: 25898903 heartbeat IPC: 2.71895 cumulative IPC: 2.70282 (Simulation time: 0 hr 2 min 42 sec) 
Heartbeat CPU 0 instructions: 80000003 cycles: 29729301 heartbeat IPC: 2.61069 cumulative IPC: 2.69095 (Simulation time: 0 hr 3 min 6 sec) 
Heartbeat CPU 0 instructions: 90000000 cycles: 33514320 heartbeat IPC: 2.64199 cumulative IPC: 2.68542 (Simulation time: 0 hr 3 min 31 sec) 
Heartbeat CPU 0 instructions: 100000002 cycles: 37282474 heartbeat IPC: 2.65382 cumulative IPC: 2.68223 (Simulation time: 0 hr 3 min 55 sec) 

Warmup complete CPU 0 instructions: 100000002 cycles: 37282474 (Simulation time: 0 hr 3 min 55 sec) 

Heartbeat CPU 0 instructions: 110000000 cycles: 70121559 heartbeat IPC: 0.304515 cumulative IPC: 0.304515 (Simulation time: 0 hr 4 min 29 sec) 
Heartbeat CPU 0 instructions: 120000001 cycles: 97825818 heartbeat IPC: 0.360955 cumulative IPC: 0.330342 (Simulation time: 0 hr 4 min 59 sec) 
Heartbeat CPU 0 instructions: 130000000 cycles: 139855075 heartbeat IPC: 0.237929 cumulative IPC: 0.292476 (Simulation time: 0 hr 5 min 37 sec) 
Heartbeat CPU 0 instructions: 140000001 cycles: 170229978 heartbeat IPC: 0.329219 cumulative IPC: 0.300871 (Simulation time: 0 hr 6 min 13 sec) 
Heartbeat CPU 0 instructions: 150000003 cycles: 203580713 heartbeat IPC: 0.299844 cumulative IPC: 0.300665 (Simulation time: 0 hr 6 min 49 sec) 
Heartbeat CPU 0 instructions: 160000002 cycles: 239747141 heartbeat IPC: 0.276499 cumulative IPC: 0.296348 (Simulation time: 0 hr 7 min 23 sec) 
Heartbeat CPU 0 instructions: 170000001 cycles: 261276565 heartbeat IPC: 0.464481 cumulative IPC: 0.312508 (Simulation time: 0 hr 7 min 55 sec) 
Heartbeat CPU 0 instructions: 180000000 cycles: 283565211 heartbeat IPC: 0.448659 cumulative IPC: 0.32483 (Simulation time: 0 hr 8 min 26 sec) 
Heartbeat CPU 0 instructions: 190000001 cycles: 315808289 heartbeat IPC: 0.310144 cumulative IPC: 0.32313 (Simulation time: 0 hr 9 min 1 sec) 
Heartbeat CPU 0 instructions: 200000001 cycles: 335557083 heartbeat IPC: 0.50636 cumulative IPC: 0.335262 (Simulation time: 0 hr 9 min 32 sec) 
Heartbeat CPU 0 instructions: 210000003 cycles: 363444358 heartbeat IPC: 0.358587 cumulative IPC: 0.337256 (Simulation time: 0 hr 10 min 2 sec) 
Heartbeat CPU 0 instructions: 220000000 cycles: 398137216 heartbeat IPC: 0.288244 cumulative IPC: 0.332544 (Simulation time: 0 hr 10 min 37 sec) 
Heartbeat CPU 0 instructions: 230000003 cycles: 441092907 heartbeat IPC: 0.232798 cumulative IPC: 0.321933 (Simulation time: 0 hr 11 min 9 sec) 
Heartbeat CPU 0 instructions: 240000001 cycles: 479320302 heartbeat IPC: 0.261592 cumulative IPC: 0.316715 (Simulation time: 0 hr 11 min 46 sec) 
Heartbeat CPU 0 instructions: 250000000 cycles: 515834342 heartbeat IPC: 0.273867 cumulative IPC: 0.313446 (Simulation time: 0 hr 12 min 21 sec) 
Heartbeat CPU 0 instructions: 260000001 cycles: 542053903 heartbeat IPC: 0.381395 cumulative IPC: 0.316975 (Simulation time: 0 hr 12 min 51 sec) 
Heartbeat CPU 0 instructions: 270000002 cycles: 563585687 heartbeat IPC: 0.46443 cumulative IPC: 0.323008 (Simulation time: 0 hr 13 min 23 sec) 
Heartbeat CPU 0 instructions: 280000000 cycles: 589346929 heartbeat IPC: 0.38818 cumulative IPC: 0.326049 (Simulation time: 0 hr 13 min 52 sec) 
Heartbeat CPU 0 instructions: 290000001 cycles: 620525918 heartbeat IPC: 0.320729 cumulative IPC: 0.325764 (Simulation time: 0 hr 14 min 25 sec) 
Heartbeat CPU 0 instructions: 300000001 cycles: 654015048 heartbeat IPC: 0.298604 cumulative IPC: 0.32429 (Simulation time: 0 hr 15 min 2 sec) 
Heartbeat CPU 0 instructions: 310000001 cycles: 688115614 heartbeat IPC: 0.29325 cumulative IPC: 0.322663 (Simulation time: 0 hr 15 min 39 sec) 
Heartbeat CPU 0 instructions: 320000000 cycles: 727576972 heartbeat IPC: 0.253412 cumulative IPC: 0.318705 (Simulation time: 0 hr 16 min 13 sec) 
Heartbeat CPU 0 instructions: 330000000 cycles: 748224105 heartbeat IPC: 0.484329 cumulative IPC: 0.323515 (Simulation time: 0 hr 16 min 43 sec) 
Heartbeat CPU 0 instructions: 340000002 cycles: 780411573 heartbeat IPC: 0.31068 cumulative IPC: 0.322959 (Simulation time: 0 hr 17 min 15 sec) 
Heartbeat CPU 0 instructions: 350000003 cycles: 816644433 heartbeat IPC: 0.275993 cumulative IPC: 0.320775 (Simulation time: 0 hr 17 min 48 sec) 
Heartbeat CPU 0 instructions: 360000001 cycles: 846527641 heartbeat IPC: 0.334636 cumulative IPC: 0.321287 (Simulation time: 0 hr 18 min 21 sec) 
Heartbeat CPU 0 instructions: 370000001 cycles: 889993337 heartbeat IPC: 0.230066 cumulative IPC: 0.316637 (Simulation time: 0 hr 18 min 59 sec) 
Heartbeat CPU 0 instructions: 380000002 cycles: 912841567 heartbeat IPC: 0.437671 cumulative IPC: 0.319796 (Simulation time: 0 hr 19 min 32 sec) 
Heartbeat CPU 0 instructions: 390000001 cycles: 955152856 heartbeat IPC: 0.236344 cumulative IPC: 0.315949 (Simulation time: 0 hr 20 min 10 sec) 
Heartbeat CPU 0 instructions: 400000000 cycles: 993789956 heartbeat IPC: 0.258819 cumulative IPC: 0.313641 (Simulation time: 0 hr 20 min 46 sec) 
Heartbeat CPU 0 instructions: 410000001 cycles: 1020379599 heartbeat IPC: 0.376086 cumulative IPC: 0.31533 (Simulation time: 0 hr 21 min 19 sec) 
Heartbeat CPU 0 instructions: 420000003 cycles: 1050697553 heartbeat IPC: 0.329838 cumulative IPC: 0.315764 (Simulation time: 0 hr 21 min 54 sec) 
Heartbeat CPU 0 instructions: 430000001 cycles: 1076835456 heartbeat IPC: 0.382586 cumulative IPC: 0.317444 (Simulation time: 0 hr 22 min 25 sec) 
Heartbeat CPU 0 instructions: 440000000 cycles: 1097797750 heartbeat IPC: 0.477047 cumulative IPC: 0.320599 (Simulation time: 0 hr 22 min 56 sec) 
Heartbeat CPU 0 instructions: 450000003 cycles: 1121787464 heartbeat IPC: 0.416845 cumulative IPC: 0.322728 (Simulation time: 0 hr 23 min 26 sec) 
Heartbeat CPU 0 instructions: 460000000 cycles: 1159849657 heartbeat IPC: 0.262728 cumulative IPC: 0.320693 (Simulation time: 0 hr 23 min 58 sec) 
Heartbeat CPU 0 instructions: 470000000 cycles: 1185870752 heartbeat IPC: 0.384304 cumulative IPC: 0.322135 (Simulation time: 0 hr 24 min 31 sec) 
Heartbeat CPU 0 instructions: 480000000 cycles: 1217138377 heartbeat IPC: 0.31982 cumulative IPC: 0.322073 (Simulation time: 0 hr 25 min 10 sec) 
Heartbeat CPU 0 instructions: 490000001 cycles: 1242049144 heartbeat IPC: 0.401433 cumulative IPC: 0.323714 (Simulation time: 0 hr 25 min 40 sec) 
Heartbeat CPU 0 instructions: 500000000 cycles: 1282944400 heartbeat IPC: 0.244527 cumulative IPC: 0.321114 (Simulation time: 0 hr 26 min 17 sec) 
Heartbeat CPU 0 instructions: 510000001 cycles: 1317065041 heartbeat IPC: 0.293078 cumulative IPC: 0.320367 (Simulation time: 0 hr 26 min 52 sec) 
Heartbeat CPU 0 instructions: 520000002 cycles: 1346949640 heartbeat IPC: 0.334621 cumulative IPC: 0.320692 (Simulation time: 0 hr 27 min 24 sec) 
Heartbeat CPU 0 instructions: 530000000 cycles: 1381831396 heartbeat IPC: 0.286683 cumulative IPC: 0.31981 (Simulation time: 0 hr 28 min 0 sec) 
Heartbeat CPU 0 instructions: 540000000 cycles: 1412902326 heartbeat IPC: 0.321844 cumulative IPC: 0.319856 (Simulation time: 0 hr 28 min 34 sec) 
Heartbeat CPU 0 instructions: 550000000 cycles: 1452568189 heartbeat IPC: 0.252106 cumulative IPC: 0.317957 (Simulation time: 0 hr 29 min 14 sec) 
Heartbeat CPU 0 instructions: 560000003 cycles: 1497896047 heartbeat IPC: 0.220615 cumulative IPC: 0.314936 (Simulation time: 0 hr 29 min 52 sec) 
Heartbeat CPU 0 instructions: 570000000 cycles: 1533997048 heartbeat IPC: 0.277001 cumulative IPC: 0.314021 (Simulation time: 0 hr 30 min 26 sec) 
Heartbeat CPU 0 instructions: 580000003 cycles: 1565209850 heartbeat IPC: 0.320381 cumulative IPC: 0.314151 (Simulation time: 0 hr 31 min 0 sec) 
Heartbeat CPU 0 instructions: 590000001 cycles: 1600940433 heartbeat IPC: 0.279872 cumulative IPC: 0.313368 (Simulation time: 0 hr 31 min 35 sec) 
Heartbeat CPU 0 instructions: 600000000 cycles: 1623318928 heartbeat IPC: 0.446858 cumulative IPC: 0.315251 (Simulation time: 0 hr 32 min 5 sec) 
Heartbeat CPU 0 instructions: 610000003 cycles: 1649567867 heartbeat IPC: 0.380968 cumulative IPC: 0.316321 (Simulation time: 0 hr 32 min 35 sec) 
Heartbeat CPU 0 instructions: 620000001 cycles: 1677304069 heartbeat IPC: 0.36054 cumulative IPC: 0.317069 (Simulation time: 0 hr 33 min 7 sec) 
Heartbeat CPU 0 instructions: 630000003 cycles: 1723984148 heartbeat IPC: 0.214224 cumulative IPC: 0.314223 (Simulation time: 0 hr 33 min 47 sec) 
Heartbeat CPU 0 instructions: 640000003 cycles: 1751365103 heartbeat IPC: 0.365217 cumulative IPC: 0.315037 (Simulation time: 0 hr 34 min 21 sec) 
Heartbeat CPU 0 instructions: 650000001 cycles: 1797059090 heartbeat IPC: 0.218847 cumulative IPC: 0.31254 (Simulation time: 0 hr 34 min 57 sec) 
Heartbeat CPU 0 instructions: 660000000 cycles: 1826302959 heartbeat IPC: 0.341952 cumulative IPC: 0.31302 (Simulation time: 0 hr 35 min 28 sec) 
Heartbeat CPU 0 instructions: 670000002 cycles: 1852571909 heartbeat IPC: 0.380678 cumulative IPC: 0.314 (Simulation time: 0 hr 35 min 58 sec) 
Heartbeat CPU 0 instructions: 680000000 cycles: 1883896501 heartbeat IPC: 0.319238 cumulative IPC: 0.314088 (Simulation time: 0 hr 36 min 33 sec) 
Heartbeat CPU 0 instructions: 690000003 cycles: 1920814864 heartbeat IPC: 0.270868 cumulative IPC: 0.313241 (Simulation time: 0 hr 37 min 5 sec) 
Heartbeat CPU 0 instructions: 700000000 cycles: 1953315943 heartbeat IPC: 0.307682 cumulative IPC: 0.313147 (Simulation time: 0 hr 37 min 40 sec) 
Heartbeat CPU 0 instructions: 710000003 cycles: 1979025869 heartbeat IPC: 0.388955 cumulative IPC: 0.314151 (Simulation time: 0 hr 38 min 15 sec) 
Heartbeat CPU 0 instructions: 720000000 cycles: 2017032971 heartbeat IPC: 0.263109 cumulative IPC: 0.313171 (Simulation time: 0 hr 38 min 53 sec) 
Heartbeat CPU 0 instructions: 730000003 cycles: 2046825567 heartbeat IPC: 0.335654 cumulative IPC: 0.313504 (Simulation time: 0 hr 39 min 26 sec) 
Heartbeat CPU 0 instructions: 740000001 cycles: 2072168111 heartbeat IPC: 0.394593 cumulative IPC: 0.314514 (Simulation time: 0 hr 39 min 58 sec) 
Heartbeat CPU 0 instructions: 750000002 cycles: 2094038035 heartbeat IPC: 0.457249 cumulative IPC: 0.316032 (Simulation time: 0 hr 40 min 29 sec) 
Heartbeat CPU 0 instructions: 760000003 cycles: 2127141266 heartbeat IPC: 0.302085 cumulative IPC: 0.315811 (Simulation time: 0 hr 40 min 59 sec) 
Heartbeat CPU 0 instructions: 770000000 cycles: 2170462789 heartbeat IPC: 0.230832 cumulative IPC: 0.314085 (Simulation time: 0 hr 41 min 34 sec) 
Heartbeat CPU 0 instructions: 780000000 cycles: 2200251843 heartbeat IPC: 0.335694 cumulative IPC: 0.314383 (Simulation time: 0 hr 42 min 9 sec) 
Heartbeat CPU 0 instructions: 790000001 cycles: 2236861051 heartbeat IPC: 0.273155 cumulative IPC: 0.313696 (Simulation time: 0 hr 42 min 46 sec) 
Heartbeat CPU 0 instructions: 800000002 cycles: 2273175539 heartbeat IPC: 0.275372 cumulative IPC: 0.313074 (Simulation time: 0 hr 43 min 22 sec) 
Heartbeat CPU 0 instructions: 810000002 cycles: 2313520940 heartbeat IPC: 0.24786 cumulative IPC: 0.311918 (Simulation time: 0 hr 43 min 54 sec) 
Heartbeat CPU 0 instructions: 820000002 cycles: 2336246977 heartbeat IPC: 0.440024 cumulative IPC: 0.313184 (Simulation time: 0 hr 44 min 23 sec) 
Heartbeat CPU 0 instructions: 830000002 cycles: 2356793346 heartbeat IPC: 0.486704 cumulative IPC: 0.314722 (Simulation time: 0 hr 44 min 55 sec) 
Heartbeat CPU 0 instructions: 840000002 cycles: 2390315807 heartbeat IPC: 0.298307 cumulative IPC: 0.314488 (Simulation time: 0 hr 45 min 30 sec) 
Heartbeat CPU 0 instructions: 850000002 cycles: 2418192446 heartbeat IPC: 0.358723 cumulative IPC: 0.315006 (Simulation time: 0 hr 46 min 4 sec) 
Heartbeat CPU 0 instructions: 860000001 cycles: 2455155653 heartbeat IPC: 0.270539 cumulative IPC: 0.314326 (Simulation time: 0 hr 46 min 38 sec) 
Heartbeat CPU 0 instructions: 870000000 cycles: 2482233991 heartbeat IPC: 0.369299 cumulative IPC: 0.314935 (Simulation time: 0 hr 47 min 10 sec) 
Heartbeat CPU 0 instructions: 880000000 cycles: 2517691420 heartbeat IPC: 0.282028 cumulative IPC: 0.314464 (Simulation time: 0 hr 47 min 48 sec) 
Heartbeat CPU 0 instructions: 890000000 cycles: 2549340672 heartbeat IPC: 0.315963 cumulative IPC: 0.314483 (Simulation time: 0 hr 48 min 23 sec) 
Heartbeat CPU 0 instructions: 900000001 cycles: 2577403781 heartbeat IPC: 0.35634 cumulative IPC: 0.314946 (Simulation time: 0 hr 48 min 57 sec) 
Heartbeat CPU 0 instructions: 910000003 cycles: 2599754398 heartbeat IPC: 0.447415 cumulative IPC: 0.316101 (Simulation time: 0 hr 49 min 29 sec) 
Heartbeat CPU 0 instructions: 920000001 cycles: 2627072543 heartbeat IPC: 0.366057 cumulative IPC: 0.316628 (Simulation time: 0 hr 50 min 0 sec) 
Heartbeat CPU 0 instructions: 930000000 cycles: 2658020770 heartbeat IPC: 0.32312 cumulative IPC: 0.316705 (Simulation time: 0 hr 50 min 31 sec) 
Heartbeat CPU 0 instructions: 940000001 cycles: 2684563165 heartbeat IPC: 0.376756 cumulative IPC: 0.317307 (Simulation time: 0 hr 51 min 4 sec) 
Heartbeat CPU 0 instructions: 950000003 cycles: 2716064731 heartbeat IPC: 0.317445 cumulative IPC: 0.317308 (Simulation time: 0 hr 51 min 43 sec) 
Heartbeat CPU 0 instructions: 960000000 cycles: 2739208711 heartbeat IPC: 0.432078 cumulative IPC: 0.318291 (Simulation time: 0 hr 52 min 17 sec) 
Heartbeat CPU 0 instructions: 970000002 cycles: 2771150279 heartbeat IPC: 0.313072 cumulative IPC: 0.31823 (Simulation time: 0 hr 52 min 48 sec) 
Heartbeat CPU 0 instructions: 980000002 cycles: 2794186635 heartbeat IPC: 0.434096 cumulative IPC: 0.319199 (Simulation time: 0 hr 53 min 20 sec) 
Heartbeat CPU 0 instructions: 990000000 cycles: 2816039475 heartbeat IPC: 0.457606 cumulative IPC: 0.320287 (Simulation time: 0 hr 53 min 53 sec) 
Heartbeat CPU 0 instructions: 1000000002 cycles: 2853277477 heartbeat IPC: 0.268543 cumulative IPC: 0.319603 (Simulation time: 0 hr 54 min 26 sec) 
Heartbeat CPU 0 instructions: 1010000000 cycles: 2879573526 heartbeat IPC: 0.380285 cumulative IPC: 0.320164 (Simulation time: 0 hr 55 min 1 sec) 
Heartbeat CPU 0 instructions: 1020000002 cycles: 2909044620 heartbeat IPC: 0.339316 cumulative IPC: 0.320361 (Simulation time: 0 hr 55 min 36 sec) 
Heartbeat CPU 0 instructions: 1030000000 cycles: 2958571866 heartbeat IPC: 0.201909 cumulative IPC: 0.318353 (Simulation time: 0 hr 56 min 14 sec) 
Heartbeat CPU 0 instructions: 1040000001 cycles: 2990964467 heartbeat IPC: 0.308713 cumulative IPC: 0.318247 (Simulation time: 0 hr 56 min 50 sec) 
Heartbeat CPU 0 instructions: 1050000001 cycles: 3019971242 heartbeat IPC: 0.344747 cumulative IPC: 0.318505 (Simulation time: 0 hr 57 min 22 sec) 
Heartbeat CPU 0 instructions: 1060000001 cycles: 3048471581 heartbeat IPC: 0.350873 cumulative IPC: 0.318811 (Simulation time: 0 hr 57 min 52 sec) 
Heartbeat CPU 0 instructions: 1070000001 cycles: 3069738428 heartbeat IPC: 0.470215 cumulative IPC: 0.319873 (Simulation time: 0 hr 58 min 24 sec) 
Heartbeat CPU 0 instructions: 1080000001 cycles: 3102364583 heartbeat IPC: 0.306503 cumulative IPC: 0.31973 (Simulation time: 0 hr 58 min 55 sec) 
Heartbeat CPU 0 instructions: 1090000002 cycles: 3142137692 heartbeat IPC: 0.251426 cumulative IPC: 0.318855 (Simulation time: 0 hr 59 min 29 sec) 
Heartbeat CPU 0 instructions: 1100000000 cycles: 3181803805 heartbeat IPC: 0.252104 cumulative IPC: 0.318013 (Simulation time: 1 hr 0 min 5 sec) 
Finished CPU 0 instructions: 1000000000 cycles: 3144521555 cumulative IPC: 0.318013 (Simulation time: 1 hr 0 min 5 sec) 

ChampSim completed all CPUs

Region of Interest Statistics

CPU 0 cumulative IPC: 0.318013 instructions: 1000000000 cycles: 3144521555
L1D TOTAL     ACCESS:  352878944  HIT:  322703977  MISS:   30174967
L1D LOAD      ACCESS:  136471942  HIT:  106299865  MISS:   30172077
L1D RFO       ACCESS:  216407002  HIT:  216404112  MISS:       2890
L1D PREFETCH  ACCESS:          0  HIT:          0  MISS:          0
L1D WRITEBACK ACCESS:          0  HIT:          0  MISS:          0
L1D PREFETCH  REQUESTED:          0  ISSUED:          0  USEFUL:          0  USELESS:          0
L1D AVERAGE MISS LATENCY: 219.457 cycles
L1I TOTAL     ACCESS:  185324552  HIT:  185324552  MISS:          0
L1I LOAD      ACCESS:  185324552  HIT:  185324552  MISS:          0
L1I RFO       ACCESS:          0  HIT:          0  MISS:          0
L1I PREFETCH  ACCESS:          0  HIT:          0  MISS:          0
L1I WRITEBACK ACCESS:          0  HIT:          0  MISS:          0
L1I PREFETCH  REQUESTED:          0  ISSUED:          0  USEFUL:          0  USELESS:          0
L1I AVERAGE MISS LATENCY: -nan cycles
L2C TOTAL     ACCESS:   43327938  HIT:   13623992  MISS:   29703946
L2C LOAD      ACCESS:   30171340  HIT:     507951  MISS:   29663389
L2C RFO       ACCESS:       2890  HIT:       2002  MISS:        888
L2C PREFETCH  ACCESS:          0  HIT:          0  MISS:          0
L2C WRITEBACK ACCESS:   13153708  HIT:   13114039  MISS:      39669
L2C PREFETCH  REQUESTED:          0  ISSUED:          0  USEFUL:          0  USELESS:          0
L2C AVERAGE MISS LATENCY: 196.595 cycles
LLC TOTAL     ACCESS:   42438166  HIT:    7190138  MISS:   35248028
LLC LOAD      ACCESS:   29663369  HIT:    2474153  MISS:   27189216
LLC RFO       ACCESS:        888  HIT:        606  MISS:        282
LLC PREFETCH  ACCESS:          0  HIT:          0  MISS:          0
LLC WRITEBACK ACCESS:   12773909  HIT:    4715379  MISS:    8058530
LLC PREFETCH  REQUESTED:          0  ISSUED:          0  USEFUL:          0  USELESS:          0
LLC AVERAGE MISS LATENCY: 138.35 cycles
Major fault: 0 Minor fault: 389068
==============================
Perceptron RRIP Stats:
   Num Updates: 46282307
   Num Trains:  5465574
==============================
perceptron #0: 0 0 2 0 2 0 0 2 -2 0 2 0 2 0 0 -22 


DRAM Statistics
 CHANNEL 0
 RQ ROW_BUFFER_HIT:    3516450  ROW_BUFFER_MISS:   23672967
 DBUS_CONGESTED:   15215487
 WQ ROW_BUFFER_HIT:    3241717  ROW_BUFFER_MISS:    9085795  FULL:          0

 AVG_CONGESTED_CYCLE: 6

CPU 0 Branch Prediction Accuracy: 96.6969% MPKI: 2.99068 Average ROB Occupancy at Mispredict: 90.4921

Branch types
NOT_BRANCH: 909457762 90.9458%
BRANCH_DIRECT_JUMP: 2039619 0.203962%
BRANCH_INDIRECT: 0 0%
BRANCH_CONDITIONAL: 86463194 8.64632%
BRANCH_DIRECT_CALL: 1019527 0.101953%
BRANCH_INDIRECT_CALL: 0 0%
BRANCH_RETURN: 1019528 0.101953%
BRANCH_OTHER: 0 0%

