
*** ChampSim Multicore Out-of-Order Simulator ***

Warmup Instructions: 100000000
Simulation Instructions: 1000000000
Number of CPUs: 1
LLC sets: 2048
LLC ways: 16
Off-chip DRAM Size: 4096 MB Channels: 1 Width: 64-bit Data Rate: 3200 MT/s

CPU 0 runs /scratch/user/kevin.weston/dpc3-traces/429.champsimtrace.xz
CPU 0 Bimodal branch predictor
Initialize RRPV
Initialize PRRIP state
Heartbeat CPU 0 instructions: 10000002 cycles: 3654995 heartbeat IPC: 2.73598 cumulative IPC: 2.73598 (Simulation time: 0 hr 0 min 22 sec) 
Heartbeat CPU 0 instructions: 20000000 cycles: 7581513 heartbeat IPC: 2.54679 cumulative IPC: 2.638 (Simulation time: 0 hr 0 min 45 sec) 
Heartbeat CPU 0 instructions: 30000003 cycles: 11194836 heartbeat IPC: 2.76754 cumulative IPC: 2.67981 (Simulation time: 0 hr 1 min 8 sec) 
Heartbeat CPU 0 instructions: 40000001 cycles: 14809483 heartbeat IPC: 2.76652 cumulative IPC: 2.70097 (Simulation time: 0 hr 1 min 30 sec) 
Heartbeat CPU 0 instructions: 50000002 cycles: 18425587 heartbeat IPC: 2.76541 cumulative IPC: 2.71362 (Simulation time: 0 hr 1 min 53 sec) 
Heartbeat CPU 0 instructions: 60000000 cycles: 22229782 heartbeat IPC: 2.62868 cumulative IPC: 2.69908 (Simulation time: 0 hr 2 min 16 sec) 
Heartbeat CPU 0 instructions: 70000003 cycles: 25908364 heartbeat IPC: 2.71844 cumulative IPC: 2.70183 (Simulation time: 0 hr 2 min 39 sec) 
Heartbeat CPU 0 instructions: 80000003 cycles: 29746356 heartbeat IPC: 2.60553 cumulative IPC: 2.68941 (Simulation time: 0 hr 3 min 2 sec) 
Heartbeat CPU 0 instructions: 90000000 cycles: 33545743 heartbeat IPC: 2.632 cumulative IPC: 2.6829 (Simulation time: 0 hr 3 min 25 sec) 
Heartbeat CPU 0 instructions: 100000002 cycles: 37314960 heartbeat IPC: 2.65307 cumulative IPC: 2.67989 (Simulation time: 0 hr 3 min 47 sec) 

Warmup complete CPU 0 instructions: 100000002 cycles: 37314960 (Simulation time: 0 hr 3 min 47 sec) 

Heartbeat CPU 0 instructions: 110000000 cycles: 72251192 heartbeat IPC: 0.286236 cumulative IPC: 0.286236 (Simulation time: 0 hr 4 min 21 sec) 
Heartbeat CPU 0 instructions: 120000001 cycles: 100115572 heartbeat IPC: 0.358881 cumulative IPC: 0.318468 (Simulation time: 0 hr 4 min 51 sec) 
Heartbeat CPU 0 instructions: 130000000 cycles: 141473952 heartbeat IPC: 0.241789 cumulative IPC: 0.288021 (Simulation time: 0 hr 5 min 27 sec) 
Heartbeat CPU 0 instructions: 140000001 cycles: 171650418 heartbeat IPC: 0.331384 cumulative IPC: 0.297762 (Simulation time: 0 hr 6 min 3 sec) 
Heartbeat CPU 0 instructions: 150000003 cycles: 205034807 heartbeat IPC: 0.299541 cumulative IPC: 0.298116 (Simulation time: 0 hr 6 min 38 sec) 
Heartbeat CPU 0 instructions: 160000002 cycles: 241689940 heartbeat IPC: 0.272813 cumulative IPC: 0.293578 (Simulation time: 0 hr 7 min 12 sec) 
Heartbeat CPU 0 instructions: 170000001 cycles: 263368717 heartbeat IPC: 0.461281 cumulative IPC: 0.309661 (Simulation time: 0 hr 7 min 43 sec) 
Heartbeat CPU 0 instructions: 180000000 cycles: 285645552 heartbeat IPC: 0.448897 cumulative IPC: 0.322151 (Simulation time: 0 hr 8 min 13 sec) 
Heartbeat CPU 0 instructions: 190000001 cycles: 318292067 heartbeat IPC: 0.306311 cumulative IPC: 0.320311 (Simulation time: 0 hr 8 min 48 sec) 
Heartbeat CPU 0 instructions: 200000001 cycles: 338037842 heartbeat IPC: 0.506437 cumulative IPC: 0.332532 (Simulation time: 0 hr 9 min 18 sec) 
Heartbeat CPU 0 instructions: 210000003 cycles: 365962671 heartbeat IPC: 0.358104 cumulative IPC: 0.334705 (Simulation time: 0 hr 9 min 48 sec) 
Heartbeat CPU 0 instructions: 220000000 cycles: 400557393 heartbeat IPC: 0.289061 cumulative IPC: 0.330358 (Simulation time: 0 hr 10 min 21 sec) 
Heartbeat CPU 0 instructions: 230000003 cycles: 446775014 heartbeat IPC: 0.216368 cumulative IPC: 0.317491 (Simulation time: 0 hr 10 min 54 sec) 
Heartbeat CPU 0 instructions: 240000001 cycles: 488032769 heartbeat IPC: 0.242379 cumulative IPC: 0.310616 (Simulation time: 0 hr 11 min 31 sec) 
Heartbeat CPU 0 instructions: 250000000 cycles: 527043952 heartbeat IPC: 0.256337 cumulative IPC: 0.306292 (Simulation time: 0 hr 12 min 7 sec) 
Heartbeat CPU 0 instructions: 260000001 cycles: 553270042 heartbeat IPC: 0.3813 cumulative IPC: 0.310105 (Simulation time: 0 hr 12 min 36 sec) 
Heartbeat CPU 0 instructions: 270000002 cycles: 574796205 heartbeat IPC: 0.464551 cumulative IPC: 0.31629 (Simulation time: 0 hr 13 min 7 sec) 
Heartbeat CPU 0 instructions: 280000000 cycles: 600332934 heartbeat IPC: 0.391593 cumulative IPC: 0.319706 (Simulation time: 0 hr 13 min 35 sec) 
Heartbeat CPU 0 instructions: 290000001 cycles: 630682741 heartbeat IPC: 0.329491 cumulative IPC: 0.320206 (Simulation time: 0 hr 14 min 7 sec) 
Heartbeat CPU 0 instructions: 300000001 cycles: 663592525 heartbeat IPC: 0.303861 cumulative IPC: 0.319347 (Simulation time: 0 hr 14 min 43 sec) 
Heartbeat CPU 0 instructions: 310000001 cycles: 697153409 heartbeat IPC: 0.297966 cumulative IPC: 0.31826 (Simulation time: 0 hr 15 min 18 sec) 
Heartbeat CPU 0 instructions: 320000000 cycles: 741413150 heartbeat IPC: 0.225939 cumulative IPC: 0.312456 (Simulation time: 0 hr 15 min 53 sec) 
Heartbeat CPU 0 instructions: 330000000 cycles: 762118570 heartbeat IPC: 0.482965 cumulative IPC: 0.317327 (Simulation time: 0 hr 16 min 23 sec) 
Heartbeat CPU 0 instructions: 340000002 cycles: 795122114 heartbeat IPC: 0.302998 cumulative IPC: 0.316703 (Simulation time: 0 hr 16 min 55 sec) 
Heartbeat CPU 0 instructions: 350000003 cycles: 834228904 heartbeat IPC: 0.25571 cumulative IPC: 0.31371 (Simulation time: 0 hr 17 min 28 sec) 
Heartbeat CPU 0 instructions: 360000001 cycles: 863122017 heartbeat IPC: 0.346103 cumulative IPC: 0.314844 (Simulation time: 0 hr 17 min 58 sec) 
Heartbeat CPU 0 instructions: 370000001 cycles: 910437639 heartbeat IPC: 0.211347 cumulative IPC: 0.309235 (Simulation time: 0 hr 18 min 37 sec) 
Heartbeat CPU 0 instructions: 380000002 cycles: 933007995 heartbeat IPC: 0.443059 cumulative IPC: 0.312607 (Simulation time: 0 hr 19 min 8 sec) 
Heartbeat CPU 0 instructions: 390000001 cycles: 974611590 heartbeat IPC: 0.240364 cumulative IPC: 0.3094 (Simulation time: 0 hr 19 min 45 sec) 
Heartbeat CPU 0 instructions: 400000000 cycles: 1013841283 heartbeat IPC: 0.254909 cumulative IPC: 0.307211 (Simulation time: 0 hr 20 min 19 sec) 
Heartbeat CPU 0 instructions: 410000001 cycles: 1039786788 heartbeat IPC: 0.385423 cumulative IPC: 0.309236 (Simulation time: 0 hr 20 min 51 sec) 
Heartbeat CPU 0 instructions: 420000003 cycles: 1070670915 heartbeat IPC: 0.323791 cumulative IPC: 0.309671 (Simulation time: 0 hr 21 min 25 sec) 
Heartbeat CPU 0 instructions: 430000001 cycles: 1096818351 heartbeat IPC: 0.382447 cumulative IPC: 0.311467 (Simulation time: 0 hr 21 min 56 sec) 
Heartbeat CPU 0 instructions: 440000000 cycles: 1117764623 heartbeat IPC: 0.477412 cumulative IPC: 0.314684 (Simulation time: 0 hr 22 min 26 sec) 
Heartbeat CPU 0 instructions: 450000003 cycles: 1141719887 heartbeat IPC: 0.417445 cumulative IPC: 0.316913 (Simulation time: 0 hr 22 min 55 sec) 
Heartbeat CPU 0 instructions: 460000000 cycles: 1180302451 heartbeat IPC: 0.259184 cumulative IPC: 0.314964 (Simulation time: 0 hr 23 min 25 sec) 
Heartbeat CPU 0 instructions: 470000000 cycles: 1207263324 heartbeat IPC: 0.370908 cumulative IPC: 0.316253 (Simulation time: 0 hr 23 min 58 sec) 
Heartbeat CPU 0 instructions: 480000000 cycles: 1238395359 heartbeat IPC: 0.321213 cumulative IPC: 0.316382 (Simulation time: 0 hr 24 min 36 sec) 
Heartbeat CPU 0 instructions: 490000001 cycles: 1263304697 heartbeat IPC: 0.401456 cumulative IPC: 0.31811 (Simulation time: 0 hr 25 min 5 sec) 
Heartbeat CPU 0 instructions: 500000000 cycles: 1309702763 heartbeat IPC: 0.215526 cumulative IPC: 0.31437 (Simulation time: 0 hr 25 min 43 sec) 
Heartbeat CPU 0 instructions: 510000001 cycles: 1343215367 heartbeat IPC: 0.298395 cumulative IPC: 0.31396 (Simulation time: 0 hr 26 min 17 sec) 
Heartbeat CPU 0 instructions: 520000002 cycles: 1372408576 heartbeat IPC: 0.342545 cumulative IPC: 0.314585 (Simulation time: 0 hr 26 min 48 sec) 
Heartbeat CPU 0 instructions: 530000000 cycles: 1410284096 heartbeat IPC: 0.264023 cumulative IPC: 0.31319 (Simulation time: 0 hr 27 min 24 sec) 
Heartbeat CPU 0 instructions: 540000000 cycles: 1440645878 heartbeat IPC: 0.329361 cumulative IPC: 0.31354 (Simulation time: 0 hr 27 min 57 sec) 
Heartbeat CPU 0 instructions: 550000000 cycles: 1481675730 heartbeat IPC: 0.243725 cumulative IPC: 0.311557 (Simulation time: 0 hr 28 min 36 sec) 
Heartbeat CPU 0 instructions: 560000003 cycles: 1527488090 heartbeat IPC: 0.218282 cumulative IPC: 0.308689 (Simulation time: 0 hr 29 min 13 sec) 
Heartbeat CPU 0 instructions: 570000000 cycles: 1563909429 heartbeat IPC: 0.274564 cumulative IPC: 0.307875 (Simulation time: 0 hr 29 min 46 sec) 
Heartbeat CPU 0 instructions: 580000003 cycles: 1598776620 heartbeat IPC: 0.286803 cumulative IPC: 0.307404 (Simulation time: 0 hr 30 min 20 sec) 
Heartbeat CPU 0 instructions: 590000000 cycles: 1634494653 heartbeat IPC: 0.279971 cumulative IPC: 0.306791 (Simulation time: 0 hr 30 min 54 sec) 
Heartbeat CPU 0 instructions: 600000000 cycles: 1656851738 heartbeat IPC: 0.447286 cumulative IPC: 0.30873 (Simulation time: 0 hr 31 min 24 sec) 
Heartbeat CPU 0 instructions: 610000003 cycles: 1683145046 heartbeat IPC: 0.380325 cumulative IPC: 0.309874 (Simulation time: 0 hr 31 min 53 sec) 
Heartbeat CPU 0 instructions: 620000001 cycles: 1710438909 heartbeat IPC: 0.366383 cumulative IPC: 0.310796 (Simulation time: 0 hr 32 min 24 sec) 
Heartbeat CPU 0 instructions: 630000003 cycles: 1758260801 heartbeat IPC: 0.209109 cumulative IPC: 0.30797 (Simulation time: 0 hr 33 min 3 sec) 
Heartbeat CPU 0 instructions: 640000003 cycles: 1785573010 heartbeat IPC: 0.366137 cumulative IPC: 0.308879 (Simulation time: 0 hr 33 min 36 sec) 
Heartbeat CPU 0 instructions: 650000001 cycles: 1835896599 heartbeat IPC: 0.198714 cumulative IPC: 0.305797 (Simulation time: 0 hr 34 min 13 sec) 
Heartbeat CPU 0 instructions: 660000000 cycles: 1864724305 heartbeat IPC: 0.346888 cumulative IPC: 0.306445 (Simulation time: 0 hr 34 min 42 sec) 
Heartbeat CPU 0 instructions: 670000002 cycles: 1891900512 heartbeat IPC: 0.367969 cumulative IPC: 0.307346 (Simulation time: 0 hr 35 min 13 sec) 
Heartbeat CPU 0 instructions: 680000000 cycles: 1922221228 heartbeat IPC: 0.329807 cumulative IPC: 0.307708 (Simulation time: 0 hr 35 min 45 sec) 
Heartbeat CPU 0 instructions: 690000003 cycles: 1959622278 heartbeat IPC: 0.267372 cumulative IPC: 0.306923 (Simulation time: 0 hr 36 min 16 sec) 
Heartbeat CPU 0 instructions: 700000000 cycles: 1992234072 heartbeat IPC: 0.306637 cumulative IPC: 0.306918 (Simulation time: 0 hr 36 min 50 sec) 
Heartbeat CPU 0 instructions: 710000003 cycles: 2019394600 heartbeat IPC: 0.368181 cumulative IPC: 0.307758 (Simulation time: 0 hr 37 min 25 sec) 
Heartbeat CPU 0 instructions: 720000000 cycles: 2056686999 heartbeat IPC: 0.268151 cumulative IPC: 0.307026 (Simulation time: 0 hr 38 min 1 sec) 
Heartbeat CPU 0 instructions: 730000003 cycles: 2086025421 heartbeat IPC: 0.34085 cumulative IPC: 0.307511 (Simulation time: 0 hr 38 min 33 sec) 
Heartbeat CPU 0 instructions: 740000001 cycles: 2111549972 heartbeat IPC: 0.39178 cumulative IPC: 0.308547 (Simulation time: 0 hr 39 min 5 sec) 
Heartbeat CPU 0 instructions: 750000002 cycles: 2133397845 heartbeat IPC: 0.457711 cumulative IPC: 0.310102 (Simulation time: 0 hr 39 min 34 sec) 
Heartbeat CPU 0 instructions: 760000003 cycles: 2165928324 heartbeat IPC: 0.307404 cumulative IPC: 0.310061 (Simulation time: 0 hr 40 min 4 sec) 
Heartbeat CPU 0 instructions: 770000000 cycles: 2215132251 heartbeat IPC: 0.203236 cumulative IPC: 0.307647 (Simulation time: 0 hr 40 min 39 sec) 
Heartbeat CPU 0 instructions: 780000000 cycles: 2243929055 heartbeat IPC: 0.347261 cumulative IPC: 0.308164 (Simulation time: 0 hr 41 min 13 sec) 
Heartbeat CPU 0 instructions: 790000001 cycles: 2280696013 heartbeat IPC: 0.271983 cumulative IPC: 0.307571 (Simulation time: 0 hr 41 min 49 sec) 
Heartbeat CPU 0 instructions: 800000002 cycles: 2317378032 heartbeat IPC: 0.272613 cumulative IPC: 0.307009 (Simulation time: 0 hr 42 min 24 sec) 
Heartbeat CPU 0 instructions: 810000002 cycles: 2358765842 heartbeat IPC: 0.241617 cumulative IPC: 0.305843 (Simulation time: 0 hr 42 min 55 sec) 
Heartbeat CPU 0 instructions: 820000002 cycles: 2382405075 heartbeat IPC: 0.423026 cumulative IPC: 0.307024 (Simulation time: 0 hr 43 min 24 sec) 
Heartbeat CPU 0 instructions: 830000002 cycles: 2402928461 heartbeat IPC: 0.487249 cumulative IPC: 0.308588 (Simulation time: 0 hr 43 min 55 sec) 
Heartbeat CPU 0 instructions: 840000002 cycles: 2438437986 heartbeat IPC: 0.281615 cumulative IPC: 0.308189 (Simulation time: 0 hr 44 min 30 sec) 
Heartbeat CPU 0 instructions: 850000002 cycles: 2465351495 heartbeat IPC: 0.371561 cumulative IPC: 0.308892 (Simulation time: 0 hr 45 min 2 sec) 
Heartbeat CPU 0 instructions: 860000001 cycles: 2500904149 heartbeat IPC: 0.281273 cumulative IPC: 0.308493 (Simulation time: 0 hr 45 min 35 sec) 
Heartbeat CPU 0 instructions: 870000000 cycles: 2528119828 heartbeat IPC: 0.367435 cumulative IPC: 0.309137 (Simulation time: 0 hr 46 min 5 sec) 
Heartbeat CPU 0 instructions: 880000000 cycles: 2563437691 heartbeat IPC: 0.283143 cumulative IPC: 0.308774 (Simulation time: 0 hr 46 min 42 sec) 
Heartbeat CPU 0 instructions: 890000000 cycles: 2594713028 heartbeat IPC: 0.319741 cumulative IPC: 0.308908 (Simulation time: 0 hr 47 min 16 sec) 
Heartbeat CPU 0 instructions: 900000001 cycles: 2623100181 heartbeat IPC: 0.352272 cumulative IPC: 0.309384 (Simulation time: 0 hr 47 min 48 sec) 
Heartbeat CPU 0 instructions: 910000003 cycles: 2645453818 heartbeat IPC: 0.447355 cumulative IPC: 0.310566 (Simulation time: 0 hr 48 min 20 sec) 
Heartbeat CPU 0 instructions: 920000001 cycles: 2672268740 heartbeat IPC: 0.372927 cumulative IPC: 0.311201 (Simulation time: 0 hr 48 min 50 sec) 
Heartbeat CPU 0 instructions: 930000000 cycles: 2703041332 heartbeat IPC: 0.324964 cumulative IPC: 0.31136 (Simulation time: 0 hr 49 min 20 sec) 
Heartbeat CPU 0 instructions: 940000001 cycles: 2729201206 heartbeat IPC: 0.382265 cumulative IPC: 0.312049 (Simulation time: 0 hr 49 min 52 sec) 
Heartbeat CPU 0 instructions: 950000003 cycles: 2760608068 heartbeat IPC: 0.318402 cumulative IPC: 0.312122 (Simulation time: 0 hr 50 min 29 sec) 
Heartbeat CPU 0 instructions: 960000000 cycles: 2783647974 heartbeat IPC: 0.434029 cumulative IPC: 0.313145 (Simulation time: 0 hr 51 min 1 sec) 
Heartbeat CPU 0 instructions: 970000002 cycles: 2817092270 heartbeat IPC: 0.299005 cumulative IPC: 0.312975 (Simulation time: 0 hr 51 min 32 sec) 
Heartbeat CPU 0 instructions: 980000002 cycles: 2840856006 heartbeat IPC: 0.420809 cumulative IPC: 0.313889 (Simulation time: 0 hr 52 min 3 sec) 
Heartbeat CPU 0 instructions: 990000000 cycles: 2862709220 heartbeat IPC: 0.457599 cumulative IPC: 0.315 (Simulation time: 0 hr 52 min 35 sec) 
Heartbeat CPU 0 instructions: 1000000002 cycles: 2903042240 heartbeat IPC: 0.247936 cumulative IPC: 0.314056 (Simulation time: 0 hr 53 min 7 sec) 
Heartbeat CPU 0 instructions: 1010000000 cycles: 2929306265 heartbeat IPC: 0.380749 cumulative IPC: 0.314662 (Simulation time: 0 hr 53 min 39 sec) 
Heartbeat CPU 0 instructions: 1020000002 cycles: 2957984767 heartbeat IPC: 0.348693 cumulative IPC: 0.314996 (Simulation time: 0 hr 54 min 11 sec) 
Heartbeat CPU 0 instructions: 1030000001 cycles: 3008380719 heartbeat IPC: 0.198429 cumulative IPC: 0.313019 (Simulation time: 0 hr 54 min 48 sec) 
Heartbeat CPU 0 instructions: 1040000001 cycles: 3039913682 heartbeat IPC: 0.317128 cumulative IPC: 0.313062 (Simulation time: 0 hr 55 min 22 sec) 
Heartbeat CPU 0 instructions: 1050000001 cycles: 3068825741 heartbeat IPC: 0.345876 cumulative IPC: 0.313375 (Simulation time: 0 hr 55 min 53 sec) 
Heartbeat CPU 0 instructions: 1060000001 cycles: 3097322426 heartbeat IPC: 0.350918 cumulative IPC: 0.313725 (Simulation time: 0 hr 56 min 22 sec) 
Heartbeat CPU 0 instructions: 1070000001 cycles: 3118580765 heartbeat IPC: 0.470404 cumulative IPC: 0.314806 (Simulation time: 0 hr 56 min 53 sec) 
Heartbeat CPU 0 instructions: 1080000001 cycles: 3150946130 heartbeat IPC: 0.308972 cumulative IPC: 0.314745 (Simulation time: 0 hr 57 min 23 sec) 
Heartbeat CPU 0 instructions: 1090000002 cycles: 3193226674 heartbeat IPC: 0.236515 cumulative IPC: 0.313697 (Simulation time: 0 hr 57 min 58 sec) 
Heartbeat CPU 0 instructions: 1100000000 cycles: 3232830450 heartbeat IPC: 0.252501 cumulative IPC: 0.312939 (Simulation time: 0 hr 58 min 32 sec) 
Finished CPU 0 instructions: 1000000000 cycles: 3195515614 cumulative IPC: 0.312939 (Simulation time: 0 hr 58 min 32 sec) 

ChampSim completed all CPUs

Region of Interest Statistics

CPU 0 cumulative IPC: 0.312939 instructions: 1000000000 cycles: 3195515614
L1D TOTAL     ACCESS:  352859839  HIT:  322684874  MISS:   30174965
L1D LOAD      ACCESS:  136474520  HIT:  106302445  MISS:   30172075
L1D RFO       ACCESS:  216385319  HIT:  216382429  MISS:       2890
L1D PREFETCH  ACCESS:          0  HIT:          0  MISS:          0
L1D WRITEBACK ACCESS:          0  HIT:          0  MISS:          0
L1D PREFETCH  REQUESTED:          0  ISSUED:          0  USEFUL:          0  USELESS:          0
L1D AVERAGE MISS LATENCY: 222.273 cycles
L1I TOTAL     ACCESS:  185348329  HIT:  185348329  MISS:          0
L1I LOAD      ACCESS:  185348329  HIT:  185348329  MISS:          0
L1I RFO       ACCESS:          0  HIT:          0  MISS:          0
L1I PREFETCH  ACCESS:          0  HIT:          0  MISS:          0
L1I WRITEBACK ACCESS:          0  HIT:          0  MISS:          0
L1I PREFETCH  REQUESTED:          0  ISSUED:          0  USEFUL:          0  USELESS:          0
L1I AVERAGE MISS LATENCY: -nan cycles
L2C TOTAL     ACCESS:   43327936  HIT:   13623998  MISS:   29703938
L2C LOAD      ACCESS:   30171339  HIT:     507962  MISS:   29663377
L2C RFO       ACCESS:       2890  HIT:       2002  MISS:        888
L2C PREFETCH  ACCESS:          0  HIT:          0  MISS:          0
L2C WRITEBACK ACCESS:   13153707  HIT:   13114034  MISS:      39673
L2C PREFETCH  REQUESTED:          0  ISSUED:          0  USEFUL:          0  USELESS:          0
L2C AVERAGE MISS LATENCY: 199.434 cycles
LLC TOTAL     ACCESS:   42438150  HIT:    2265789  MISS:   40172361
LLC LOAD      ACCESS:   29663358  HIT:    1133221  MISS:   28530137
LLC RFO       ACCESS:        888  HIT:        606  MISS:        282
LLC PREFETCH  ACCESS:          0  HIT:          0  MISS:          0
LLC WRITEBACK ACCESS:   12773904  HIT:    1131962  MISS:   11641942
LLC PREFETCH  REQUESTED:          0  ISSUED:          0  USEFUL:          0  USELESS:          0
LLC AVERAGE MISS LATENCY: 123.474 cycles
Major fault: 0 Minor fault: 389068
==============================
Perceptron RRIP Stats:
   Num Updates: 32273160
   Num Trains:  562655
==============================
perceptron #0: 4 6 2 0 4 2 4 -2 -4 -2 0 2 4 0 0 -2 -2 0 0 8 2 6 6 6 6 6 -6 

perceptron #1: -4 0 6 4 0 4 -2 4 2 4 0 -4 4 4 -4 -2 -2 2 0 6 2 6 6 6 6 -6 -6 

perceptron #2: 0 2 -2 -2 -2 -2 -2 2 -2 2 -2 4 0 -2 -2 0 0 0 0 -4 -6 6 6 6 -6 6 -6 

perceptron #3: 3 3 1 3 -5 -3 1 5 -3 -1 3 -3 3 -1 1 3 -1 5 5 -5 1 5 5 5 -5 -5 -5 

perceptron #4: 3 3 -1 3 -3 -1 -1 7 -1 -1 -1 -1 -1 5 1 -3 -3 -3 3 3 -5 5 5 -5 5 5 -5 

perceptron #5: 7 1 1 3 1 -1 -5 3 -3 1 3 1 1 -3 -3 5 1 -3 -1 -3 -3 5 5 -5 5 -5 -5 

perceptron #6: 4 0 2 2 2 -4 -4 0 -2 0 4 4 -2 -2 0 4 2 -2 4 0 0 4 4 -4 -4 4 -4 

perceptron #7: 3 1 -1 7 -3 -1 1 -1 -3 1 -1 1 -1 3 -1 1 -1 -3 1 5 -1 5 5 -5 -5 -5 -5 

perceptron #8: 1 -1 -3 3 -3 1 1 -1 -3 -1 3 -1 1 -1 1 3 3 1 5 -1 -1 5 -5 5 5 5 -5 

perceptron #9: 1 -3 -1 3 3 -1 -3 3 -1 3 3 -3 -1 -3 -7 5 -1 1 -1 1 5 5 -5 5 5 -5 -5 

perceptron #10: 1 -1 1 5 1 -3 -5 3 -1 -1 5 5 1 1 -1 3 -3 5 3 1 -5 5 -5 5 -5 5 -5 

perceptron #11: -1 5 3 7 -5 -1 -3 3 1 1 -3 5 5 -1 1 -1 -1 1 3 1 5 5 -5 5 -5 -5 -5 

perceptron #12: 0 2 4 4 2 -2 -2 -2 -4 2 0 6 6 4 4 6 -4 6 -4 2 -4 4 -4 -4 4 4 -4 

perceptron #13: 5 -1 3 -1 -1 -3 -3 1 -1 1 -3 5 -7 1 3 3 1 -3 -1 -1 1 3 -3 -3 3 -3 -3 

perceptron #14: 5 3 -5 1 -1 -1 -3 -3 -5 -1 1 -1 -1 -1 3 -3 5 -1 3 5 5 5 -5 -5 -5 5 -5 

perceptron #15: -3 3 1 1 -1 1 1 -3 -1 1 3 -3 3 3 7 5 1 5 3 -3 -1 5 -5 -5 -5 -5 -5 

perceptron #16: 0 -2 0 0 -2 0 2 2 -2 -2 8 4 -2 -2 2 4 -4 2 0 10 -6 -6 6 6 6 6 -6 

perceptron #17: 6 -4 4 2 0 -2 -2 2 0 2 4 6 2 2 -2 4 0 0 -2 -2 -2 -4 4 4 4 -4 -4 

perceptron #18: 4 -4 2 2 2 -4 0 2 0 2 4 4 2 -2 0 4 -2 6 4 4 -2 -6 6 6 -6 6 -6 

perceptron #19: -2 -2 0 0 4 0 0 0 0 0 2 2 0 0 2 10 -6 2 0 2 -6 -6 6 6 -6 -6 -6 

perceptron #20: -2 0 6 4 0 4 -4 10 -2 6 2 -4 4 -2 -2 2 2 0 4 4 4 -4 4 -4 4 4 -4 

perceptron #21: 2 -2 6 6 2 0 0 8 4 6 0 -2 6 -6 -4 -4 2 -2 8 -2 4 -4 4 -4 4 -4 -4 

perceptron #22: 2 0 4 0 -2 -4 -4 2 2 2 6 2 4 -4 0 4 0 6 -2 4 -4 -6 6 -6 -6 6 -6 

perceptron #23: -1 -5 3 1 -1 -1 1 -3 3 -1 5 3 -3 -7 1 3 -3 1 -3 1 1 -5 5 -5 -5 -5 -5 

perceptron #24: 5 -3 5 3 -1 -1 -5 5 -1 1 3 5 -3 1 -1 3 3 5 -5 3 1 -5 -5 5 5 5 -5 

perceptron #25: 5 1 3 3 -1 1 -5 3 -3 5 3 5 -3 1 -1 1 3 5 -5 3 1 -5 -5 5 5 -5 -5 

perceptron #26: -3 -1 3 1 -1 -3 -7 1 -1 3 -3 5 5 1 1 -3 5 -1 1 1 1 -5 -5 5 -5 5 -5 

perceptron #27: 2 -4 -2 6 0 -2 -4 2 0 2 2 0 -2 6 -2 4 0 2 0 -2 2 -4 -4 4 -4 -4 -4 

perceptron #28: 0 2 2 6 2 4 -8 4 -2 0 2 0 6 2 0 -4 4 -2 4 -2 6 -4 -4 -4 4 4 -4 

perceptron #29: 4 -6 4 0 0 0 0 4 4 2 4 0 0 -4 2 2 4 2 -4 0 8 -6 -6 -6 6 -6 -6 

perceptron #30: 3 -1 1 3 1 -1 -1 1 -5 3 1 5 -1 -1 3 1 5 -5 -3 1 1 -5 -5 -5 -5 5 -5 

perceptron #31: 3 1 -1 1 3 3 1 -1 1 1 1 -1 1 -3 7 3 3 -5 3 3 5 -7 -7 -7 -7 -7 -7 


DRAM Statistics
 CHANNEL 0
 RQ ROW_BUFFER_HIT:    4879365  ROW_BUFFER_MISS:   23651006
 DBUS_CONGESTED:   15260505
 WQ ROW_BUFFER_HIT:    2783812  ROW_BUFFER_MISS:    9450990  FULL:          0

 AVG_CONGESTED_CYCLE: 6

CPU 0 Branch Prediction Accuracy: 96.6969% MPKI: 2.99068 Average ROB Occupancy at Mispredict: 90.4559

Branch types
NOT_BRANCH: 909457762 90.9458%
BRANCH_DIRECT_JUMP: 2039619 0.203962%
BRANCH_INDIRECT: 0 0%
BRANCH_CONDITIONAL: 86463194 8.64632%
BRANCH_DIRECT_CALL: 1019527 0.101953%
BRANCH_INDIRECT_CALL: 0 0%
BRANCH_RETURN: 1019528 0.101953%
BRANCH_OTHER: 0 0%

