
*** ChampSim Multicore Out-of-Order Simulator ***

Warmup Instructions: 100000000
Simulation Instructions: 1000000000
Number of CPUs: 1
LLC sets: 2048
LLC ways: 16
Off-chip DRAM Size: 4096 MB Channels: 1 Width: 64-bit Data Rate: 3200 MT/s

CPU 0 runs /scratch/user/kevin.weston/dpc3-traces/450.champsimtrace.xz
CPU 0 Bimodal branch predictor
Initialize RRPV
Initialize PRRIP state
Heartbeat CPU 0 instructions: 10000002 cycles: 4635322 heartbeat IPC: 2.15735 cumulative IPC: 2.15735 (Simulation time: 0 hr 0 min 27 sec) 
Heartbeat CPU 0 instructions: 20000001 cycles: 8703160 heartbeat IPC: 2.45831 cumulative IPC: 2.29802 (Simulation time: 0 hr 0 min 51 sec) 
Heartbeat CPU 0 instructions: 30000003 cycles: 12752671 heartbeat IPC: 2.46943 cumulative IPC: 2.35245 (Simulation time: 0 hr 1 min 14 sec) 
Heartbeat CPU 0 instructions: 40000002 cycles: 16774001 heartbeat IPC: 2.48674 cumulative IPC: 2.38464 (Simulation time: 0 hr 1 min 37 sec) 
Heartbeat CPU 0 instructions: 50000000 cycles: 20798563 heartbeat IPC: 2.48474 cumulative IPC: 2.40401 (Simulation time: 0 hr 2 min 0 sec) 
Heartbeat CPU 0 instructions: 60000002 cycles: 24832780 heartbeat IPC: 2.4788 cumulative IPC: 2.41616 (Simulation time: 0 hr 2 min 23 sec) 
Heartbeat CPU 0 instructions: 70000000 cycles: 28793128 heartbeat IPC: 2.52503 cumulative IPC: 2.43114 (Simulation time: 0 hr 2 min 46 sec) 
Heartbeat CPU 0 instructions: 80000001 cycles: 32808319 heartbeat IPC: 2.49054 cumulative IPC: 2.43841 (Simulation time: 0 hr 3 min 9 sec) 
Heartbeat CPU 0 instructions: 90000000 cycles: 36864663 heartbeat IPC: 2.46527 cumulative IPC: 2.44136 (Simulation time: 0 hr 3 min 33 sec) 
Heartbeat CPU 0 instructions: 100000003 cycles: 40943120 heartbeat IPC: 2.45191 cumulative IPC: 2.44241 (Simulation time: 0 hr 3 min 56 sec) 

Warmup complete CPU 0 instructions: 100000003 cycles: 40943120 (Simulation time: 0 hr 3 min 56 sec) 

Heartbeat CPU 0 instructions: 110000000 cycles: 86782438 heartbeat IPC: 0.218153 cumulative IPC: 0.218153 (Simulation time: 0 hr 4 min 31 sec) 
Heartbeat CPU 0 instructions: 120000003 cycles: 112030940 heartbeat IPC: 0.396063 cumulative IPC: 0.281342 (Simulation time: 0 hr 5 min 3 sec) 
Heartbeat CPU 0 instructions: 130000003 cycles: 144988653 heartbeat IPC: 0.303419 cumulative IPC: 0.288335 (Simulation time: 0 hr 5 min 34 sec) 
Heartbeat CPU 0 instructions: 140000003 cycles: 173194689 heartbeat IPC: 0.354534 cumulative IPC: 0.302454 (Simulation time: 0 hr 6 min 2 sec) 
Heartbeat CPU 0 instructions: 150000003 cycles: 201065215 heartbeat IPC: 0.358802 cumulative IPC: 0.312262 (Simulation time: 0 hr 6 min 29 sec) 
Heartbeat CPU 0 instructions: 160000002 cycles: 231514762 heartbeat IPC: 0.328412 cumulative IPC: 0.314842 (Simulation time: 0 hr 6 min 57 sec) 
Heartbeat CPU 0 instructions: 170000003 cycles: 262074286 heartbeat IPC: 0.32723 cumulative IPC: 0.316554 (Simulation time: 0 hr 7 min 28 sec) 
Heartbeat CPU 0 instructions: 180000002 cycles: 291522201 heartbeat IPC: 0.339583 cumulative IPC: 0.31926 (Simulation time: 0 hr 7 min 57 sec) 
Heartbeat CPU 0 instructions: 190000002 cycles: 319868692 heartbeat IPC: 0.352777 cumulative IPC: 0.322667 (Simulation time: 0 hr 8 min 25 sec) 
Heartbeat CPU 0 instructions: 200000003 cycles: 352123341 heartbeat IPC: 0.310033 cumulative IPC: 0.321357 (Simulation time: 0 hr 8 min 56 sec) 
Heartbeat CPU 0 instructions: 210000001 cycles: 393595322 heartbeat IPC: 0.241127 cumulative IPC: 0.311922 (Simulation time: 0 hr 9 min 28 sec) 
Heartbeat CPU 0 instructions: 220000000 cycles: 420769750 heartbeat IPC: 0.367993 cumulative IPC: 0.315934 (Simulation time: 0 hr 9 min 58 sec) 
Heartbeat CPU 0 instructions: 230000001 cycles: 449509840 heartbeat IPC: 0.347946 cumulative IPC: 0.318185 (Simulation time: 0 hr 10 min 29 sec) 
Heartbeat CPU 0 instructions: 240000002 cycles: 480269715 heartbeat IPC: 0.325099 cumulative IPC: 0.31867 (Simulation time: 0 hr 10 min 58 sec) 
Heartbeat CPU 0 instructions: 250000001 cycles: 510971969 heartbeat IPC: 0.325709 cumulative IPC: 0.319129 (Simulation time: 0 hr 11 min 28 sec) 
Heartbeat CPU 0 instructions: 260000003 cycles: 540649358 heartbeat IPC: 0.336957 cumulative IPC: 0.320188 (Simulation time: 0 hr 11 min 57 sec) 
Heartbeat CPU 0 instructions: 270000003 cycles: 569710299 heartbeat IPC: 0.344104 cumulative IPC: 0.321503 (Simulation time: 0 hr 12 min 26 sec) 
Heartbeat CPU 0 instructions: 280000003 cycles: 601015939 heartbeat IPC: 0.319431 cumulative IPC: 0.321387 (Simulation time: 0 hr 12 min 57 sec) 
Heartbeat CPU 0 instructions: 290000000 cycles: 628990766 heartbeat IPC: 0.357464 cumulative IPC: 0.323103 (Simulation time: 0 hr 13 min 24 sec) 
Heartbeat CPU 0 instructions: 300000000 cycles: 657117710 heartbeat IPC: 0.355531 cumulative IPC: 0.324583 (Simulation time: 0 hr 13 min 52 sec) 
Heartbeat CPU 0 instructions: 310000002 cycles: 686394232 heartbeat IPC: 0.341571 cumulative IPC: 0.325354 (Simulation time: 0 hr 14 min 20 sec) 
Heartbeat CPU 0 instructions: 320000001 cycles: 732332797 heartbeat IPC: 0.217682 cumulative IPC: 0.3182 (Simulation time: 0 hr 14 min 56 sec) 
Heartbeat CPU 0 instructions: 330000000 cycles: 758640507 heartbeat IPC: 0.380117 cumulative IPC: 0.320469 (Simulation time: 0 hr 15 min 26 sec) 
Heartbeat CPU 0 instructions: 340000000 cycles: 787339355 heartbeat IPC: 0.348446 cumulative IPC: 0.321545 (Simulation time: 0 hr 15 min 56 sec) 
Heartbeat CPU 0 instructions: 350000003 cycles: 817223746 heartbeat IPC: 0.334623 cumulative IPC: 0.322048 (Simulation time: 0 hr 16 min 25 sec) 
Heartbeat CPU 0 instructions: 360000002 cycles: 846620346 heartbeat IPC: 0.340175 cumulative IPC: 0.32271 (Simulation time: 0 hr 16 min 54 sec) 
Heartbeat CPU 0 instructions: 370000001 cycles: 875952160 heartbeat IPC: 0.340927 cumulative IPC: 0.32335 (Simulation time: 0 hr 17 min 22 sec) 
Heartbeat CPU 0 instructions: 380000002 cycles: 905226088 heartbeat IPC: 0.341601 cumulative IPC: 0.323968 (Simulation time: 0 hr 17 min 51 sec) 
Heartbeat CPU 0 instructions: 390000000 cycles: 934574672 heartbeat IPC: 0.340732 cumulative IPC: 0.324519 (Simulation time: 0 hr 18 min 20 sec) 
Heartbeat CPU 0 instructions: 400000000 cycles: 963817711 heartbeat IPC: 0.341962 cumulative IPC: 0.325071 (Simulation time: 0 hr 18 min 49 sec) 
Heartbeat CPU 0 instructions: 410000000 cycles: 993141183 heartbeat IPC: 0.341024 cumulative IPC: 0.325563 (Simulation time: 0 hr 19 min 17 sec) 
Heartbeat CPU 0 instructions: 420000002 cycles: 1022474077 heartbeat IPC: 0.340914 cumulative IPC: 0.326021 (Simulation time: 0 hr 19 min 46 sec) 
Heartbeat CPU 0 instructions: 430000003 cycles: 1051735173 heartbeat IPC: 0.341751 cumulative IPC: 0.326477 (Simulation time: 0 hr 20 min 15 sec) 
Heartbeat CPU 0 instructions: 440000000 cycles: 1098162409 heartbeat IPC: 0.215391 cumulative IPC: 0.321598 (Simulation time: 0 hr 20 min 51 sec) 
Heartbeat CPU 0 instructions: 450000001 cycles: 1123353967 heartbeat IPC: 0.396958 cumulative IPC: 0.323352 (Simulation time: 0 hr 21 min 22 sec) 
Heartbeat CPU 0 instructions: 460000000 cycles: 1153682214 heartbeat IPC: 0.329726 cumulative IPC: 0.323526 (Simulation time: 0 hr 21 min 52 sec) 
Heartbeat CPU 0 instructions: 470000001 cycles: 1182774249 heartbeat IPC: 0.343737 cumulative IPC: 0.324041 (Simulation time: 0 hr 22 min 20 sec) 
Heartbeat CPU 0 instructions: 480000000 cycles: 1212087236 heartbeat IPC: 0.341146 cumulative IPC: 0.324469 (Simulation time: 0 hr 22 min 49 sec) 
Heartbeat CPU 0 instructions: 490000003 cycles: 1241430108 heartbeat IPC: 0.340798 cumulative IPC: 0.324868 (Simulation time: 0 hr 23 min 18 sec) 
Heartbeat CPU 0 instructions: 500000000 cycles: 1270718633 heartbeat IPC: 0.341431 cumulative IPC: 0.325263 (Simulation time: 0 hr 23 min 47 sec) 
Heartbeat CPU 0 instructions: 510000000 cycles: 1299908129 heartbeat IPC: 0.342589 cumulative IPC: 0.325664 (Simulation time: 0 hr 24 min 16 sec) 
Heartbeat CPU 0 instructions: 520000001 cycles: 1329140629 heartbeat IPC: 0.342085 cumulative IPC: 0.326037 (Simulation time: 0 hr 24 min 44 sec) 
Heartbeat CPU 0 instructions: 530000002 cycles: 1358297322 heartbeat IPC: 0.342974 cumulative IPC: 0.326412 (Simulation time: 0 hr 25 min 13 sec) 
Heartbeat CPU 0 instructions: 540000002 cycles: 1387465050 heartbeat IPC: 0.342845 cumulative IPC: 0.326768 (Simulation time: 0 hr 25 min 42 sec) 
Heartbeat CPU 0 instructions: 550000000 cycles: 1416165964 heartbeat IPC: 0.348421 cumulative IPC: 0.32722 (Simulation time: 0 hr 26 min 11 sec) 
Heartbeat CPU 0 instructions: 560000001 cycles: 1461788678 heartbeat IPC: 0.219189 cumulative IPC: 0.323751 (Simulation time: 0 hr 26 min 46 sec) 
Heartbeat CPU 0 instructions: 570000001 cycles: 1487118111 heartbeat IPC: 0.394798 cumulative IPC: 0.324995 (Simulation time: 0 hr 27 min 17 sec) 
Heartbeat CPU 0 instructions: 580000001 cycles: 1523515106 heartbeat IPC: 0.274748 cumulative IPC: 0.323762 (Simulation time: 0 hr 27 min 50 sec) 
Heartbeat CPU 0 instructions: 590000001 cycles: 1552906626 heartbeat IPC: 0.340234 cumulative IPC: 0.324082 (Simulation time: 0 hr 28 min 18 sec) 
Heartbeat CPU 0 instructions: 600000002 cycles: 1582539474 heartbeat IPC: 0.337463 cumulative IPC: 0.324339 (Simulation time: 0 hr 28 min 47 sec) 
Heartbeat CPU 0 instructions: 610000001 cycles: 1612092456 heartbeat IPC: 0.338375 cumulative IPC: 0.324603 (Simulation time: 0 hr 29 min 16 sec) 
Heartbeat CPU 0 instructions: 620000000 cycles: 1646727698 heartbeat IPC: 0.288723 cumulative IPC: 0.323829 (Simulation time: 0 hr 29 min 48 sec) 
Heartbeat CPU 0 instructions: 630000003 cycles: 1681408909 heartbeat IPC: 0.288341 cumulative IPC: 0.323079 (Simulation time: 0 hr 30 min 21 sec) 
Heartbeat CPU 0 instructions: 640000002 cycles: 1715549186 heartbeat IPC: 0.292909 cumulative IPC: 0.322464 (Simulation time: 0 hr 30 min 52 sec) 
Heartbeat CPU 0 instructions: 650000001 cycles: 1746311392 heartbeat IPC: 0.325074 cumulative IPC: 0.322511 (Simulation time: 0 hr 31 min 22 sec) 
Heartbeat CPU 0 instructions: 660000000 cycles: 1780203072 heartbeat IPC: 0.295058 cumulative IPC: 0.321976 (Simulation time: 0 hr 31 min 54 sec) 
Heartbeat CPU 0 instructions: 670000000 cycles: 1814389909 heartbeat IPC: 0.29251 cumulative IPC: 0.321408 (Simulation time: 0 hr 32 min 25 sec) 
Heartbeat CPU 0 instructions: 680000000 cycles: 1866876587 heartbeat IPC: 0.190525 cumulative IPC: 0.317646 (Simulation time: 0 hr 33 min 8 sec) 
Heartbeat CPU 0 instructions: 690000003 cycles: 1892938785 heartbeat IPC: 0.383698 cumulative IPC: 0.318575 (Simulation time: 0 hr 33 min 37 sec) 
Heartbeat CPU 0 instructions: 700000003 cycles: 1921808491 heartbeat IPC: 0.346384 cumulative IPC: 0.319002 (Simulation time: 0 hr 34 min 7 sec) 
Heartbeat CPU 0 instructions: 710000002 cycles: 1955559452 heartbeat IPC: 0.296288 cumulative IPC: 0.318602 (Simulation time: 0 hr 34 min 39 sec) 
Heartbeat CPU 0 instructions: 720000002 cycles: 1989854747 heartbeat IPC: 0.291585 cumulative IPC: 0.318126 (Simulation time: 0 hr 35 min 11 sec) 
Heartbeat CPU 0 instructions: 730000001 cycles: 2024340294 heartbeat IPC: 0.289977 cumulative IPC: 0.317637 (Simulation time: 0 hr 35 min 44 sec) 
Heartbeat CPU 0 instructions: 740000002 cycles: 2058774335 heartbeat IPC: 0.29041 cumulative IPC: 0.317172 (Simulation time: 0 hr 36 min 16 sec) 
Heartbeat CPU 0 instructions: 750000003 cycles: 2093302333 heartbeat IPC: 0.28962 cumulative IPC: 0.316709 (Simulation time: 0 hr 36 min 48 sec) 
Heartbeat CPU 0 instructions: 760000001 cycles: 2128229887 heartbeat IPC: 0.286307 cumulative IPC: 0.3162 (Simulation time: 0 hr 37 min 21 sec) 
Heartbeat CPU 0 instructions: 770000000 cycles: 2163298246 heartbeat IPC: 0.285157 cumulative IPC: 0.315687 (Simulation time: 0 hr 37 min 54 sec) 
Heartbeat CPU 0 instructions: 780000000 cycles: 2197150722 heartbeat IPC: 0.295399 cumulative IPC: 0.315369 (Simulation time: 0 hr 38 min 26 sec) 
Heartbeat CPU 0 instructions: 790000001 cycles: 2231177202 heartbeat IPC: 0.293889 cumulative IPC: 0.315035 (Simulation time: 0 hr 38 min 57 sec) 
Heartbeat CPU 0 instructions: 800000003 cycles: 2282781076 heartbeat IPC: 0.193784 cumulative IPC: 0.312244 (Simulation time: 0 hr 39 min 38 sec) 
Heartbeat CPU 0 instructions: 810000003 cycles: 2309367124 heartbeat IPC: 0.376137 cumulative IPC: 0.312993 (Simulation time: 0 hr 40 min 8 sec) 
Heartbeat CPU 0 instructions: 820000003 cycles: 2338826712 heartbeat IPC: 0.339448 cumulative IPC: 0.313332 (Simulation time: 0 hr 40 min 38 sec) 
Heartbeat CPU 0 instructions: 830000001 cycles: 2374702076 heartbeat IPC: 0.278743 cumulative IPC: 0.3128 (Simulation time: 0 hr 41 min 11 sec) 
Heartbeat CPU 0 instructions: 840000000 cycles: 2404205057 heartbeat IPC: 0.338949 cumulative IPC: 0.313127 (Simulation time: 0 hr 41 min 40 sec) 
Heartbeat CPU 0 instructions: 850000003 cycles: 2435598536 heartbeat IPC: 0.318538 cumulative IPC: 0.313197 (Simulation time: 0 hr 42 min 11 sec) 
Heartbeat CPU 0 instructions: 860000000 cycles: 2464515473 heartbeat IPC: 0.345818 cumulative IPC: 0.313587 (Simulation time: 0 hr 42 min 38 sec) 
Heartbeat CPU 0 instructions: 870000002 cycles: 2492168485 heartbeat IPC: 0.361624 cumulative IPC: 0.314129 (Simulation time: 0 hr 43 min 5 sec) 
Heartbeat CPU 0 instructions: 880000000 cycles: 2522703268 heartbeat IPC: 0.327495 cumulative IPC: 0.314293 (Simulation time: 0 hr 43 min 34 sec) 
Heartbeat CPU 0 instructions: 890000003 cycles: 2553592907 heartbeat IPC: 0.323733 cumulative IPC: 0.314409 (Simulation time: 0 hr 44 min 4 sec) 
Heartbeat CPU 0 instructions: 900000001 cycles: 2588755442 heartbeat IPC: 0.284394 cumulative IPC: 0.313995 (Simulation time: 0 hr 44 min 33 sec) 
Heartbeat CPU 0 instructions: 910000003 cycles: 2627617836 heartbeat IPC: 0.257318 cumulative IPC: 0.313143 (Simulation time: 0 hr 45 min 8 sec) 
Heartbeat CPU 0 instructions: 920000000 cycles: 2655167904 heartbeat IPC: 0.362975 cumulative IPC: 0.313669 (Simulation time: 0 hr 45 min 40 sec) 
Heartbeat CPU 0 instructions: 930000002 cycles: 2685471984 heartbeat IPC: 0.329989 cumulative IPC: 0.313856 (Simulation time: 0 hr 46 min 9 sec) 
Heartbeat CPU 0 instructions: 940000001 cycles: 2713357305 heartbeat IPC: 0.358612 cumulative IPC: 0.314323 (Simulation time: 0 hr 46 min 36 sec) 
Heartbeat CPU 0 instructions: 950000001 cycles: 2747005802 heartbeat IPC: 0.29719 cumulative IPC: 0.31411 (Simulation time: 0 hr 47 min 8 sec) 
Heartbeat CPU 0 instructions: 960000000 cycles: 2777423131 heartbeat IPC: 0.32876 cumulative IPC: 0.314272 (Simulation time: 0 hr 47 min 36 sec) 
Heartbeat CPU 0 instructions: 970000001 cycles: 2811604076 heartbeat IPC: 0.292561 cumulative IPC: 0.314005 (Simulation time: 0 hr 48 min 9 sec) 
Heartbeat CPU 0 instructions: 980000000 cycles: 2844955337 heartbeat IPC: 0.299839 cumulative IPC: 0.313836 (Simulation time: 0 hr 48 min 41 sec) 
Heartbeat CPU 0 instructions: 990000000 cycles: 2878586873 heartbeat IPC: 0.29734 cumulative IPC: 0.313641 (Simulation time: 0 hr 49 min 13 sec) 
Heartbeat CPU 0 instructions: 1000000001 cycles: 2909843959 heartbeat IPC: 0.319927 cumulative IPC: 0.313709 (Simulation time: 0 hr 49 min 43 sec) 
Heartbeat CPU 0 instructions: 1010000002 cycles: 2949139857 heartbeat IPC: 0.25448 cumulative IPC: 0.312909 (Simulation time: 0 hr 50 min 19 sec) 
Heartbeat CPU 0 instructions: 1020000001 cycles: 2995404344 heartbeat IPC: 0.216148 cumulative IPC: 0.311393 (Simulation time: 0 hr 50 min 56 sec) 
Heartbeat CPU 0 instructions: 1030000001 cycles: 3020880760 heartbeat IPC: 0.39252 cumulative IPC: 0.312087 (Simulation time: 0 hr 51 min 27 sec) 
Heartbeat CPU 0 instructions: 1040000002 cycles: 3055549650 heartbeat IPC: 0.288443 cumulative IPC: 0.311815 (Simulation time: 0 hr 51 min 59 sec) 
Heartbeat CPU 0 instructions: 1050000000 cycles: 3089919823 heartbeat IPC: 0.29095 cumulative IPC: 0.31158 (Simulation time: 0 hr 52 min 32 sec) 
Heartbeat CPU 0 instructions: 1060000003 cycles: 3124920326 heartbeat IPC: 0.28571 cumulative IPC: 0.311286 (Simulation time: 0 hr 53 min 5 sec) 
Heartbeat CPU 0 instructions: 1070000000 cycles: 3160721024 heartbeat IPC: 0.279324 cumulative IPC: 0.31092 (Simulation time: 0 hr 53 min 38 sec) 
Heartbeat CPU 0 instructions: 1080000000 cycles: 3195432783 heartbeat IPC: 0.288087 cumulative IPC: 0.310668 (Simulation time: 0 hr 54 min 10 sec) 
Heartbeat CPU 0 instructions: 1090000000 cycles: 3229012464 heartbeat IPC: 0.297799 cumulative IPC: 0.310533 (Simulation time: 0 hr 54 min 42 sec) 
Heartbeat CPU 0 instructions: 1100000000 cycles: 3263663512 heartbeat IPC: 0.288592 cumulative IPC: 0.310297 (Simulation time: 0 hr 55 min 14 sec) 
Finished CPU 0 instructions: 1000000001 cycles: 3222720401 cumulative IPC: 0.310297 (Simulation time: 0 hr 55 min 14 sec) 

ChampSim completed all CPUs

Region of Interest Statistics

CPU 0 cumulative IPC: 0.310297 instructions: 1000000001 cycles: 3222720401
L1D TOTAL     ACCESS:  208244030  HIT:  157081127  MISS:   51162903
L1D LOAD      ACCESS:  155868893  HIT:  112102219  MISS:   43766674
L1D RFO       ACCESS:   52375137  HIT:   44978908  MISS:    7396229
L1D PREFETCH  ACCESS:          0  HIT:          0  MISS:          0
L1D WRITEBACK ACCESS:          0  HIT:          0  MISS:          0
L1D PREFETCH  REQUESTED:          0  ISSUED:          0  USEFUL:          0  USELESS:          0
L1D AVERAGE MISS LATENCY: 138.02 cycles
L1I TOTAL     ACCESS:  184425652  HIT:  184419180  MISS:       6472
L1I LOAD      ACCESS:  184425652  HIT:  184419180  MISS:       6472
L1I RFO       ACCESS:          0  HIT:          0  MISS:          0
L1I PREFETCH  ACCESS:          0  HIT:          0  MISS:          0
L1I WRITEBACK ACCESS:          0  HIT:          0  MISS:          0
L1I PREFETCH  REQUESTED:          0  ISSUED:          0  USEFUL:          0  USELESS:          0
L1I AVERAGE MISS LATENCY: 243.061 cycles
L2C TOTAL     ACCESS:   72003988  HIT:   28223370  MISS:   43780618
L2C LOAD      ACCESS:   43768658  HIT:    6678052  MISS:   37090606
L2C RFO       ACCESS:    7395697  HIT:     715517  MISS:    6680180
L2C PREFETCH  ACCESS:          0  HIT:          0  MISS:          0
L2C WRITEBACK ACCESS:   20839633  HIT:   20829801  MISS:       9832
L2C PREFETCH  REQUESTED:          0  ISSUED:          0  USEFUL:          0  USELESS:          0
L2C AVERAGE MISS LATENCY: 142.709 cycles
LLC TOTAL     ACCESS:   60513054  HIT:   27496451  MISS:   33016603
LLC LOAD      ACCESS:   37090351  HIT:   13826330  MISS:   23264021
LLC RFO       ACCESS:    6680162  HIT:    2397946  MISS:    4282216
LLC PREFETCH  ACCESS:          0  HIT:          0  MISS:          0
LLC WRITEBACK ACCESS:   16742541  HIT:   11272175  MISS:    5470366
LLC PREFETCH  REQUESTED:          0  ISSUED:          0  USEFUL:          0  USELESS:          0
LLC AVERAGE MISS LATENCY: 147.973 cycles
Major fault: 0 Minor fault: 14410
==============================
Perceptron RRIP Stats:
   Num Updates: 48088264
   Num Trains:  2529804
==============================
perceptron #0: 1 -1 -1 -5 -5 1 -3 -3 3 -1 -1 -5 -19 

perceptron #1: 2 2 0 -4 -2 2 -4 -4 4 0 -6 0 -22 

perceptron #2: -1 3 -1 -5 -3 1 -5 -3 5 -1 -3 5 -21 

perceptron #3: 1 -1 -1 -3 -3 -1 -3 -3 7 1 -1 -1 -21 

perceptron #4: -1 -3 1 -3 -3 3 -3 -3 5 -3 -5 1 -21 

perceptron #5: 0 -2 0 -6 -2 0 -4 -2 4 0 -6 -2 -22 

perceptron #6: 3 -1 -1 -5 -3 3 -5 -3 5 -3 -5 1 -21 

perceptron #7: 1 -1 1 -5 -1 1 -3 -3 3 1 -3 -3 -19 


DRAM Statistics
 CHANNEL 0
 RQ ROW_BUFFER_HIT:    8350656  ROW_BUFFER_MISS:   19192950
 DBUS_CONGESTED:   11906293
 WQ ROW_BUFFER_HIT:    4092302  ROW_BUFFER_MISS:    4241045  FULL:      62850

 AVG_CONGESTED_CYCLE: 6

CPU 0 Branch Prediction Accuracy: 94.4773% MPKI: 9.83563 Average ROB Occupancy at Mispredict: 51.716

Branch types
NOT_BRANCH: 821905510 82.1906%
BRANCH_DIRECT_JUMP: 1848268 0.184827%
BRANCH_INDIRECT: 279 2.79e-05%
BRANCH_CONDITIONAL: 175056792 17.5057%
BRANCH_DIRECT_CALL: 592763 0.0592763%
BRANCH_INDIRECT_CALL: 1626 0.0001626%
BRANCH_RETURN: 594393 0.0594393%
BRANCH_OTHER: 0 0%

