
*** ChampSim Multicore Out-of-Order Simulator ***

Warmup Instructions: 100000000
Simulation Instructions: 1000000000
Number of CPUs: 1
LLC sets: 2048
LLC ways: 16
Off-chip DRAM Size: 4096 MB Channels: 1 Width: 64-bit Data Rate: 3200 MT/s

CPU 0 runs /scratch/user/kevin.weston/dpc3-traces/462.champsimtrace.xz
CPU 0 Bimodal branch predictor
Initialize RRPV
Initialize PRRIP state
Heartbeat CPU 0 instructions: 10000001 cycles: 3821111 heartbeat IPC: 2.61704 cumulative IPC: 2.61704 (Simulation time: 0 hr 0 min 12 sec) 
Heartbeat CPU 0 instructions: 20000001 cycles: 8504542 heartbeat IPC: 2.13519 cumulative IPC: 2.35168 (Simulation time: 0 hr 0 min 35 sec) 
Heartbeat CPU 0 instructions: 30000000 cycles: 12442543 heartbeat IPC: 2.53936 cumulative IPC: 2.41108 (Simulation time: 0 hr 0 min 48 sec) 
Heartbeat CPU 0 instructions: 40000000 cycles: 16073747 heartbeat IPC: 2.75391 cumulative IPC: 2.48853 (Simulation time: 0 hr 0 min 58 sec) 
Heartbeat CPU 0 instructions: 50000000 cycles: 19706987 heartbeat IPC: 2.75236 cumulative IPC: 2.53717 (Simulation time: 0 hr 1 min 7 sec) 
Heartbeat CPU 0 instructions: 60000002 cycles: 23343353 heartbeat IPC: 2.75 cumulative IPC: 2.57032 (Simulation time: 0 hr 1 min 17 sec) 
Heartbeat CPU 0 instructions: 70000002 cycles: 27076485 heartbeat IPC: 2.67872 cumulative IPC: 2.58527 (Simulation time: 0 hr 1 min 27 sec) 
Heartbeat CPU 0 instructions: 80000002 cycles: 31772092 heartbeat IPC: 2.12965 cumulative IPC: 2.51793 (Simulation time: 0 hr 1 min 49 sec) 
Heartbeat CPU 0 instructions: 90000000 cycles: 35804202 heartbeat IPC: 2.48009 cumulative IPC: 2.51367 (Simulation time: 0 hr 2 min 3 sec) 
Heartbeat CPU 0 instructions: 100000000 cycles: 39435406 heartbeat IPC: 2.75391 cumulative IPC: 2.53579 (Simulation time: 0 hr 2 min 13 sec) 

Warmup complete CPU 0 instructions: 100000004 cycles: 39435407 (Simulation time: 0 hr 2 min 13 sec) 

Heartbeat CPU 0 instructions: 110000000 cycles: 54134881 heartbeat IPC: 0.680296 cumulative IPC: 0.680296 (Simulation time: 0 hr 2 min 35 sec) 
Heartbeat CPU 0 instructions: 120000000 cycles: 70436124 heartbeat IPC: 0.61345 cumulative IPC: 0.645146 (Simulation time: 0 hr 2 min 59 sec) 
Heartbeat CPU 0 instructions: 130000000 cycles: 86253798 heartbeat IPC: 0.632204 cumulative IPC: 0.640774 (Simulation time: 0 hr 3 min 22 sec) 
Heartbeat CPU 0 instructions: 140000001 cycles: 110694345 heartbeat IPC: 0.409156 cumulative IPC: 0.561333 (Simulation time: 0 hr 3 min 57 sec) 
Heartbeat CPU 0 instructions: 150000002 cycles: 130286484 heartbeat IPC: 0.510409 cumulative IPC: 0.550351 (Simulation time: 0 hr 4 min 26 sec) 
Heartbeat CPU 0 instructions: 160000003 cycles: 144593264 heartbeat IPC: 0.698969 cumulative IPC: 0.570571 (Simulation time: 0 hr 4 min 49 sec) 
Heartbeat CPU 0 instructions: 170000003 cycles: 159025948 heartbeat IPC: 0.692872 cumulative IPC: 0.585331 (Simulation time: 0 hr 5 min 12 sec) 
Heartbeat CPU 0 instructions: 180000003 cycles: 176154881 heartbeat IPC: 0.583808 cumulative IPC: 0.58514 (Simulation time: 0 hr 5 min 35 sec) 
Heartbeat CPU 0 instructions: 190000003 cycles: 193329121 heartbeat IPC: 0.582267 cumulative IPC: 0.584819 (Simulation time: 0 hr 5 min 58 sec) 
Heartbeat CPU 0 instructions: 200000001 cycles: 216900454 heartbeat IPC: 0.424244 cumulative IPC: 0.563491 (Simulation time: 0 hr 6 min 32 sec) 
Heartbeat CPU 0 instructions: 210000001 cycles: 239492663 heartbeat IPC: 0.44263 cumulative IPC: 0.549843 (Simulation time: 0 hr 7 min 3 sec) 
Heartbeat CPU 0 instructions: 220000000 cycles: 258406725 heartbeat IPC: 0.528707 cumulative IPC: 0.548017 (Simulation time: 0 hr 7 min 26 sec) 
Heartbeat CPU 0 instructions: 230000002 cycles: 277491409 heartbeat IPC: 0.52398 cumulative IPC: 0.54609 (Simulation time: 0 hr 7 min 49 sec) 
Heartbeat CPU 0 instructions: 240000002 cycles: 302238488 heartbeat IPC: 0.404088 cumulative IPC: 0.532718 (Simulation time: 0 hr 8 min 25 sec) 
Heartbeat CPU 0 instructions: 250000003 cycles: 323211390 heartbeat IPC: 0.476806 cumulative IPC: 0.528586 (Simulation time: 0 hr 8 min 52 sec) 
Heartbeat CPU 0 instructions: 260000003 cycles: 340873692 heartbeat IPC: 0.566178 cumulative IPC: 0.530789 (Simulation time: 0 hr 9 min 15 sec) 
Heartbeat CPU 0 instructions: 270000001 cycles: 360870071 heartbeat IPC: 0.50009 cumulative IPC: 0.528879 (Simulation time: 0 hr 9 min 37 sec) 
Heartbeat CPU 0 instructions: 280000001 cycles: 391002907 heartbeat IPC: 0.331864 cumulative IPC: 0.511993 (Simulation time: 0 hr 10 min 2 sec) 
Heartbeat CPU 0 instructions: 290000003 cycles: 421421036 heartbeat IPC: 0.328751 cumulative IPC: 0.497401 (Simulation time: 0 hr 10 min 26 sec) 
Heartbeat CPU 0 instructions: 300000000 cycles: 447798177 heartbeat IPC: 0.379116 cumulative IPC: 0.489761 (Simulation time: 0 hr 11 min 0 sec) 
Heartbeat CPU 0 instructions: 310000001 cycles: 472699899 heartbeat IPC: 0.401579 cumulative IPC: 0.484692 (Simulation time: 0 hr 11 min 32 sec) 
Heartbeat CPU 0 instructions: 320000002 cycles: 496324844 heartbeat IPC: 0.423281 cumulative IPC: 0.481517 (Simulation time: 0 hr 11 min 53 sec) 
Heartbeat CPU 0 instructions: 330000000 cycles: 519811277 heartbeat IPC: 0.425778 cumulative IPC: 0.478792 (Simulation time: 0 hr 12 min 14 sec) 
Heartbeat CPU 0 instructions: 340000002 cycles: 554572050 heartbeat IPC: 0.287681 cumulative IPC: 0.465896 (Simulation time: 0 hr 12 min 38 sec) 
Heartbeat CPU 0 instructions: 350000000 cycles: 589992894 heartbeat IPC: 0.28232 cumulative IPC: 0.454085 (Simulation time: 0 hr 13 min 3 sec) 
Heartbeat CPU 0 instructions: 360000000 cycles: 622150554 heartbeat IPC: 0.310968 cumulative IPC: 0.446187 (Simulation time: 0 hr 13 min 31 sec) 
Heartbeat CPU 0 instructions: 370000000 cycles: 647251300 heartbeat IPC: 0.398395 cumulative IPC: 0.444213 (Simulation time: 0 hr 14 min 7 sec) 
Heartbeat CPU 0 instructions: 380000002 cycles: 682353509 heartbeat IPC: 0.284882 cumulative IPC: 0.435514 (Simulation time: 0 hr 14 min 35 sec) 
Heartbeat CPU 0 instructions: 390000001 cycles: 718267131 heartbeat IPC: 0.278446 cumulative IPC: 0.427205 (Simulation time: 0 hr 15 min 2 sec) 
Heartbeat CPU 0 instructions: 400000001 cycles: 747515343 heartbeat IPC: 0.341901 cumulative IPC: 0.423681 (Simulation time: 0 hr 15 min 35 sec) 
Heartbeat CPU 0 instructions: 410000000 cycles: 773656594 heartbeat IPC: 0.382537 cumulative IPC: 0.422216 (Simulation time: 0 hr 16 min 9 sec) 
Heartbeat CPU 0 instructions: 420000001 cycles: 803278437 heartbeat IPC: 0.337589 cumulative IPC: 0.418934 (Simulation time: 0 hr 16 min 31 sec) 
Heartbeat CPU 0 instructions: 430000001 cycles: 832896578 heartbeat IPC: 0.337631 cumulative IPC: 0.415899 (Simulation time: 0 hr 16 min 52 sec) 
Heartbeat CPU 0 instructions: 440000000 cycles: 865581538 heartbeat IPC: 0.305951 cumulative IPC: 0.411549 (Simulation time: 0 hr 17 min 14 sec) 
Heartbeat CPU 0 instructions: 450000001 cycles: 898334843 heartbeat IPC: 0.305313 cumulative IPC: 0.407498 (Simulation time: 0 hr 17 min 35 sec) 
Heartbeat CPU 0 instructions: 460000000 cycles: 930553075 heartbeat IPC: 0.310383 cumulative IPC: 0.403987 (Simulation time: 0 hr 17 min 57 sec) 
Heartbeat CPU 0 instructions: 470000000 cycles: 961742060 heartbeat IPC: 0.320626 cumulative IPC: 0.401168 (Simulation time: 0 hr 18 min 20 sec) 
Heartbeat CPU 0 instructions: 480000000 cycles: 990113857 heartbeat IPC: 0.352463 cumulative IPC: 0.399715 (Simulation time: 0 hr 18 min 48 sec) 
Heartbeat CPU 0 instructions: 490000000 cycles: 1015188389 heartbeat IPC: 0.398811 cumulative IPC: 0.399691 (Simulation time: 0 hr 19 min 24 sec) 
Heartbeat CPU 0 instructions: 500000002 cycles: 1051152482 heartbeat IPC: 0.278055 cumulative IPC: 0.395367 (Simulation time: 0 hr 19 min 51 sec) 
Heartbeat CPU 0 instructions: 510000001 cycles: 1086939151 heartbeat IPC: 0.279434 cumulative IPC: 0.391407 (Simulation time: 0 hr 20 min 18 sec) 
Heartbeat CPU 0 instructions: 520000001 cycles: 1115102636 heartbeat IPC: 0.35507 cumulative IPC: 0.390455 (Simulation time: 0 hr 20 min 51 sec) 
Heartbeat CPU 0 instructions: 530000002 cycles: 1141224194 heartbeat IPC: 0.382826 cumulative IPC: 0.390274 (Simulation time: 0 hr 21 min 24 sec) 
Heartbeat CPU 0 instructions: 540000000 cycles: 1169029264 heartbeat IPC: 0.359647 cumulative IPC: 0.389521 (Simulation time: 0 hr 21 min 46 sec) 
Heartbeat CPU 0 instructions: 550000000 cycles: 1196878735 heartbeat IPC: 0.359073 cumulative IPC: 0.388788 (Simulation time: 0 hr 22 min 8 sec) 
Heartbeat CPU 0 instructions: 560000003 cycles: 1222193438 heartbeat IPC: 0.395027 cumulative IPC: 0.388921 (Simulation time: 0 hr 22 min 42 sec) 
Heartbeat CPU 0 instructions: 570000000 cycles: 1247663878 heartbeat IPC: 0.392612 cumulative IPC: 0.388999 (Simulation time: 0 hr 23 min 12 sec) 
Heartbeat CPU 0 instructions: 580000002 cycles: 1273487101 heartbeat IPC: 0.387248 cumulative IPC: 0.388963 (Simulation time: 0 hr 23 min 35 sec) 
Heartbeat CPU 0 instructions: 590000003 cycles: 1298177736 heartbeat IPC: 0.405012 cumulative IPC: 0.389277 (Simulation time: 0 hr 23 min 57 sec) 
Heartbeat CPU 0 instructions: 600000003 cycles: 1316804457 heartbeat IPC: 0.536863 cumulative IPC: 0.39143 (Simulation time: 0 hr 24 min 19 sec) 
Heartbeat CPU 0 instructions: 610000003 cycles: 1335490899 heartbeat IPC: 0.535147 cumulative IPC: 0.393502 (Simulation time: 0 hr 24 min 41 sec) 
Heartbeat CPU 0 instructions: 620000000 cycles: 1358613263 heartbeat IPC: 0.432482 cumulative IPC: 0.394185 (Simulation time: 0 hr 25 min 13 sec) 
Heartbeat CPU 0 instructions: 630000000 cycles: 1382757450 heartbeat IPC: 0.414178 cumulative IPC: 0.394544 (Simulation time: 0 hr 25 min 45 sec) 
Heartbeat CPU 0 instructions: 640000001 cycles: 1403693071 heartbeat IPC: 0.477655 cumulative IPC: 0.39582 (Simulation time: 0 hr 26 min 8 sec) 
Heartbeat CPU 0 instructions: 650000003 cycles: 1424505489 heartbeat IPC: 0.480482 cumulative IPC: 0.397092 (Simulation time: 0 hr 26 min 30 sec) 
Heartbeat CPU 0 instructions: 660000000 cycles: 1449198506 heartbeat IPC: 0.404973 cumulative IPC: 0.39723 (Simulation time: 0 hr 27 min 5 sec) 
Heartbeat CPU 0 instructions: 670000001 cycles: 1470797942 heartbeat IPC: 0.462975 cumulative IPC: 0.398222 (Simulation time: 0 hr 27 min 35 sec) 
Heartbeat CPU 0 instructions: 680000003 cycles: 1488067274 heartbeat IPC: 0.579061 cumulative IPC: 0.400378 (Simulation time: 0 hr 27 min 58 sec) 
Heartbeat CPU 0 instructions: 690000000 cycles: 1505791865 heartbeat IPC: 0.564188 cumulative IPC: 0.402358 (Simulation time: 0 hr 28 min 22 sec) 
Heartbeat CPU 0 instructions: 700000000 cycles: 1530843339 heartbeat IPC: 0.399178 cumulative IPC: 0.402304 (Simulation time: 0 hr 28 min 58 sec) 
Heartbeat CPU 0 instructions: 710000001 cycles: 1548655139 heartbeat IPC: 0.561426 cumulative IPC: 0.404182 (Simulation time: 0 hr 29 min 25 sec) 
Heartbeat CPU 0 instructions: 720000000 cycles: 1563159236 heartbeat IPC: 0.68946 cumulative IPC: 0.406898 (Simulation time: 0 hr 29 min 48 sec) 
Heartbeat CPU 0 instructions: 730000000 cycles: 1577598684 heartbeat IPC: 0.692547 cumulative IPC: 0.409579 (Simulation time: 0 hr 30 min 11 sec) 
Heartbeat CPU 0 instructions: 740000002 cycles: 1592754742 heartbeat IPC: 0.659802 cumulative IPC: 0.412021 (Simulation time: 0 hr 30 min 34 sec) 
Heartbeat CPU 0 instructions: 750000001 cycles: 1607397220 heartbeat IPC: 0.682944 cumulative IPC: 0.414551 (Simulation time: 0 hr 30 min 58 sec) 
Heartbeat CPU 0 instructions: 760000001 cycles: 1632423597 heartbeat IPC: 0.399578 cumulative IPC: 0.414316 (Simulation time: 0 hr 31 min 34 sec) 
Heartbeat CPU 0 instructions: 770000000 cycles: 1651933297 heartbeat IPC: 0.512565 cumulative IPC: 0.415504 (Simulation time: 0 hr 32 min 4 sec) 
Heartbeat CPU 0 instructions: 780000002 cycles: 1667797794 heartbeat IPC: 0.630338 cumulative IPC: 0.417597 (Simulation time: 0 hr 32 min 31 sec) 
Heartbeat CPU 0 instructions: 790000003 cycles: 1685398157 heartbeat IPC: 0.56817 cumulative IPC: 0.419208 (Simulation time: 0 hr 33 min 0 sec) 
Heartbeat CPU 0 instructions: 800000003 cycles: 1710367967 heartbeat IPC: 0.400484 cumulative IPC: 0.418928 (Simulation time: 0 hr 33 min 36 sec) 
Heartbeat CPU 0 instructions: 810000000 cycles: 1726686970 heartbeat IPC: 0.612782 cumulative IPC: 0.420803 (Simulation time: 0 hr 34 min 1 sec) 
Heartbeat CPU 0 instructions: 820000000 cycles: 1741201595 heartbeat IPC: 0.68896 cumulative IPC: 0.42309 (Simulation time: 0 hr 34 min 24 sec) 
Heartbeat CPU 0 instructions: 830000000 cycles: 1755491922 heartbeat IPC: 0.699774 cumulative IPC: 0.425394 (Simulation time: 0 hr 34 min 46 sec) 
Heartbeat CPU 0 instructions: 840000001 cycles: 1770282581 heartbeat IPC: 0.676102 cumulative IPC: 0.427536 (Simulation time: 0 hr 35 min 9 sec) 
Heartbeat CPU 0 instructions: 850000000 cycles: 1786317019 heartbeat IPC: 0.623658 cumulative IPC: 0.429336 (Simulation time: 0 hr 35 min 34 sec) 
Heartbeat CPU 0 instructions: 860000000 cycles: 1811392019 heartbeat IPC: 0.398804 cumulative IPC: 0.428904 (Simulation time: 0 hr 36 min 10 sec) 
Heartbeat CPU 0 instructions: 870000001 cycles: 1829639052 heartbeat IPC: 0.548034 cumulative IPC: 0.430119 (Simulation time: 0 hr 36 min 39 sec) 
Heartbeat CPU 0 instructions: 880000000 cycles: 1845474883 heartbeat IPC: 0.631479 cumulative IPC: 0.431884 (Simulation time: 0 hr 37 min 6 sec) 
Heartbeat CPU 0 instructions: 890000002 cycles: 1860037127 heartbeat IPC: 0.686707 cumulative IPC: 0.433922 (Simulation time: 0 hr 37 min 30 sec) 
Heartbeat CPU 0 instructions: 900000000 cycles: 1875329391 heartbeat IPC: 0.653925 cumulative IPC: 0.435755 (Simulation time: 0 hr 37 min 54 sec) 
Heartbeat CPU 0 instructions: 910000001 cycles: 1890589600 heartbeat IPC: 0.655299 cumulative IPC: 0.437565 (Simulation time: 0 hr 38 min 18 sec) 
Heartbeat CPU 0 instructions: 920000001 cycles: 1915590734 heartbeat IPC: 0.399982 cumulative IPC: 0.437064 (Simulation time: 0 hr 38 min 54 sec) 
Heartbeat CPU 0 instructions: 930000000 cycles: 1934336565 heartbeat IPC: 0.533452 cumulative IPC: 0.438018 (Simulation time: 0 hr 39 min 24 sec) 
Heartbeat CPU 0 instructions: 940000002 cycles: 1949726697 heartbeat IPC: 0.649767 cumulative IPC: 0.439724 (Simulation time: 0 hr 39 min 51 sec) 
Heartbeat CPU 0 instructions: 950000003 cycles: 1967555496 heartbeat IPC: 0.56089 cumulative IPC: 0.440844 (Simulation time: 0 hr 40 min 19 sec) 
Heartbeat CPU 0 instructions: 960000003 cycles: 1992465172 heartbeat IPC: 0.40145 cumulative IPC: 0.440341 (Simulation time: 0 hr 40 min 55 sec) 
Heartbeat CPU 0 instructions: 970000002 cycles: 2009298573 heartbeat IPC: 0.594057 cumulative IPC: 0.441655 (Simulation time: 0 hr 41 min 23 sec) 
Heartbeat CPU 0 instructions: 980000002 cycles: 2025364922 heartbeat IPC: 0.622419 cumulative IPC: 0.443117 (Simulation time: 0 hr 41 min 51 sec) 
Heartbeat CPU 0 instructions: 990000000 cycles: 2049656672 heartbeat IPC: 0.411662 cumulative IPC: 0.442737 (Simulation time: 0 hr 42 min 13 sec) 
Heartbeat CPU 0 instructions: 1000000002 cycles: 2081709307 heartbeat IPC: 0.311987 cumulative IPC: 0.440685 (Simulation time: 0 hr 42 min 35 sec) 
Heartbeat CPU 0 instructions: 1010000001 cycles: 2110533172 heartbeat IPC: 0.346935 cumulative IPC: 0.439381 (Simulation time: 0 hr 42 min 58 sec) 
Heartbeat CPU 0 instructions: 1020000001 cycles: 2125995994 heartbeat IPC: 0.646712 cumulative IPC: 0.440917 (Simulation time: 0 hr 43 min 24 sec) 
Heartbeat CPU 0 instructions: 1030000001 cycles: 2138841079 heartbeat IPC: 0.778508 cumulative IPC: 0.442983 (Simulation time: 0 hr 43 min 48 sec) 
Heartbeat CPU 0 instructions: 1040000002 cycles: 2162019060 heartbeat IPC: 0.431444 cumulative IPC: 0.442857 (Simulation time: 0 hr 44 min 22 sec) 
Heartbeat CPU 0 instructions: 1050000002 cycles: 2182140791 heartbeat IPC: 0.496975 cumulative IPC: 0.443365 (Simulation time: 0 hr 44 min 53 sec) 
Heartbeat CPU 0 instructions: 1060000002 cycles: 2195311260 heartbeat IPC: 0.759274 cumulative IPC: 0.445295 (Simulation time: 0 hr 45 min 17 sec) 
Heartbeat CPU 0 instructions: 1070000003 cycles: 2209076018 heartbeat IPC: 0.726493 cumulative IPC: 0.447079 (Simulation time: 0 hr 45 min 41 sec) 
Heartbeat CPU 0 instructions: 1080000003 cycles: 2234013203 heartbeat IPC: 0.401008 cumulative IPC: 0.446555 (Simulation time: 0 hr 46 min 17 sec) 
Heartbeat CPU 0 instructions: 1090000002 cycles: 2252241921 heartbeat IPC: 0.548585 cumulative IPC: 0.447396 (Simulation time: 0 hr 46 min 45 sec) 
Heartbeat CPU 0 instructions: 1100000000 cycles: 2266790115 heartbeat IPC: 0.68737 cumulative IPC: 0.448963 (Simulation time: 0 hr 47 min 8 sec) 
Finished CPU 0 instructions: 1000000002 cycles: 2227354726 cumulative IPC: 0.448963 (Simulation time: 0 hr 47 min 8 sec) 

ChampSim completed all CPUs

Region of Interest Statistics

CPU 0 cumulative IPC: 0.448963 instructions: 1000000002 cycles: 2227354726
L1D TOTAL     ACCESS:  130142344  HIT:  103918307  MISS:   26224037
L1D LOAD      ACCESS:   81235103  HIT:   55011253  MISS:   26223850
L1D RFO       ACCESS:   48907241  HIT:   48907054  MISS:        187
L1D PREFETCH  ACCESS:          0  HIT:          0  MISS:          0
L1D WRITEBACK ACCESS:          0  HIT:          0  MISS:          0
L1D PREFETCH  REQUESTED:          0  ISSUED:          0  USEFUL:          0  USELESS:          0
L1D AVERAGE MISS LATENCY: 182.375 cycles
L1I TOTAL     ACCESS:  220007710  HIT:  220007694  MISS:         16
L1I LOAD      ACCESS:  220007710  HIT:  220007694  MISS:         16
L1I RFO       ACCESS:          0  HIT:          0  MISS:          0
L1I PREFETCH  ACCESS:          0  HIT:          0  MISS:          0
L1I WRITEBACK ACCESS:          0  HIT:          0  MISS:          0
L1I PREFETCH  REQUESTED:          0  ISSUED:          0  USEFUL:          0  USELESS:          0
L1I AVERAGE MISS LATENCY: 210.938 cycles
L2C TOTAL     ACCESS:   40036375  HIT:   13812322  MISS:   26224053
L2C LOAD      ACCESS:   26223866  HIT:          0  MISS:   26223866
L2C RFO       ACCESS:        187  HIT:          0  MISS:        187
L2C PREFETCH  ACCESS:          0  HIT:          0  MISS:          0
L2C WRITEBACK ACCESS:   13812322  HIT:   13812322  MISS:          0
L2C PREFETCH  REQUESTED:          0  ISSUED:          0  USEFUL:          0  USELESS:          0
L2C AVERAGE MISS LATENCY: 166.989 cycles
LLC TOTAL     ACCESS:   40036375  HIT:     965837  MISS:   39070538
LLC LOAD      ACCESS:   26223866  HIT:     442240  MISS:   25781626
LLC RFO       ACCESS:        187  HIT:         72  MISS:        115
LLC PREFETCH  ACCESS:          0  HIT:          0  MISS:          0
LLC WRITEBACK ACCESS:   13812322  HIT:     523525  MISS:   13288797
LLC PREFETCH  REQUESTED:          0  ISSUED:          0  USEFUL:          0  USELESS:          0
LLC AVERAGE MISS LATENCY: 91.6058 cycles
Major fault: 0 Minor fault: 8200
==============================
Perceptron RRIP Stats:
   Num Updates: 43732790
   Num Trains:  2386
==============================
perceptron #0: 0 2 6 0 6 4 -2 8 2 12 -4 -2 6 -2 -6 -34 


DRAM Statistics
 CHANNEL 0
 RQ ROW_BUFFER_HIT:   11406289  ROW_BUFFER_MISS:   14375452
 DBUS_CONGESTED:   16441742
 WQ ROW_BUFFER_HIT:   10708814  ROW_BUFFER_MISS:    3106665  FULL:          0

 AVG_CONGESTED_CYCLE: 6

CPU 0 Branch Prediction Accuracy: 97.2039% MPKI: 4.75176 Average ROB Occupancy at Mispredict: 41.6436

Branch types
NOT_BRANCH: 830056091 83.0056%
BRANCH_DIRECT_JUMP: 4 4e-07%
BRANCH_INDIRECT: 50 5e-06%
BRANCH_CONDITIONAL: 169943694 16.9944%
BRANCH_DIRECT_CALL: 252 2.52e-05%
BRANCH_INDIRECT_CALL: 0 0%
BRANCH_RETURN: 250 2.5e-05%
BRANCH_OTHER: 0 0%

