
*** ChampSim Multicore Out-of-Order Simulator ***

Warmup Instructions: 100000000
Simulation Instructions: 1000000000
Number of CPUs: 1
LLC sets: 2048
LLC ways: 16
Off-chip DRAM Size: 4096 MB Channels: 1 Width: 64-bit Data Rate: 3200 MT/s

CPU 0 runs /scratch/user/kevin.weston/dpc3-traces/462.champsimtrace.xz
CPU 0 Bimodal branch predictor
Initialize RRPV
Initialize PRRIP state
Heartbeat CPU 0 instructions: 10000001 cycles: 3821111 heartbeat IPC: 2.61704 cumulative IPC: 2.61704 (Simulation time: 0 hr 0 min 12 sec) 
Heartbeat CPU 0 instructions: 20000001 cycles: 8504542 heartbeat IPC: 2.13519 cumulative IPC: 2.35168 (Simulation time: 0 hr 0 min 33 sec) 
Heartbeat CPU 0 instructions: 30000000 cycles: 12442543 heartbeat IPC: 2.53936 cumulative IPC: 2.41108 (Simulation time: 0 hr 0 min 46 sec) 
Heartbeat CPU 0 instructions: 40000000 cycles: 16073747 heartbeat IPC: 2.75391 cumulative IPC: 2.48853 (Simulation time: 0 hr 0 min 56 sec) 
Heartbeat CPU 0 instructions: 50000002 cycles: 19706988 heartbeat IPC: 2.75236 cumulative IPC: 2.53717 (Simulation time: 0 hr 1 min 5 sec) 
Heartbeat CPU 0 instructions: 60000002 cycles: 23343353 heartbeat IPC: 2.75 cumulative IPC: 2.57032 (Simulation time: 0 hr 1 min 15 sec) 
Heartbeat CPU 0 instructions: 70000002 cycles: 27076484 heartbeat IPC: 2.67872 cumulative IPC: 2.58527 (Simulation time: 0 hr 1 min 25 sec) 
Heartbeat CPU 0 instructions: 80000002 cycles: 31772091 heartbeat IPC: 2.12965 cumulative IPC: 2.51793 (Simulation time: 0 hr 1 min 47 sec) 
Heartbeat CPU 0 instructions: 90000000 cycles: 35804201 heartbeat IPC: 2.48009 cumulative IPC: 2.51367 (Simulation time: 0 hr 2 min 1 sec) 
Heartbeat CPU 0 instructions: 100000000 cycles: 39435405 heartbeat IPC: 2.75391 cumulative IPC: 2.53579 (Simulation time: 0 hr 2 min 11 sec) 

Warmup complete CPU 0 instructions: 100000004 cycles: 39435406 (Simulation time: 0 hr 2 min 11 sec) 

Heartbeat CPU 0 instructions: 110000000 cycles: 53575661 heartbeat IPC: 0.707201 cumulative IPC: 0.707201 (Simulation time: 0 hr 2 min 32 sec) 
Heartbeat CPU 0 instructions: 120000000 cycles: 69400577 heartbeat IPC: 0.631915 cumulative IPC: 0.667441 (Simulation time: 0 hr 2 min 55 sec) 
Heartbeat CPU 0 instructions: 130000000 cycles: 84739933 heartbeat IPC: 0.651918 cumulative IPC: 0.662185 (Simulation time: 0 hr 3 min 17 sec) 
Heartbeat CPU 0 instructions: 140000001 cycles: 109657854 heartbeat IPC: 0.401318 cumulative IPC: 0.569618 (Simulation time: 0 hr 3 min 52 sec) 
Heartbeat CPU 0 instructions: 150000002 cycles: 129241609 heartbeat IPC: 0.510627 cumulative IPC: 0.556754 (Simulation time: 0 hr 4 min 20 sec) 
Heartbeat CPU 0 instructions: 160000003 cycles: 143477955 heartbeat IPC: 0.702428 cumulative IPC: 0.576687 (Simulation time: 0 hr 4 min 43 sec) 
Heartbeat CPU 0 instructions: 170000003 cycles: 157673816 heartbeat IPC: 0.704431 cumulative IPC: 0.592024 (Simulation time: 0 hr 5 min 4 sec) 
Heartbeat CPU 0 instructions: 180000003 cycles: 174507503 heartbeat IPC: 0.594047 cumulative IPC: 0.592276 (Simulation time: 0 hr 5 min 27 sec) 
Heartbeat CPU 0 instructions: 190000003 cycles: 191165959 heartbeat IPC: 0.600296 cumulative IPC: 0.593157 (Simulation time: 0 hr 5 min 50 sec) 
Heartbeat CPU 0 instructions: 200000001 cycles: 215015211 heartbeat IPC: 0.4193 cumulative IPC: 0.569542 (Simulation time: 0 hr 6 min 23 sec) 
Heartbeat CPU 0 instructions: 210000001 cycles: 237607420 heartbeat IPC: 0.44263 cumulative IPC: 0.555073 (Simulation time: 0 hr 6 min 52 sec) 
Heartbeat CPU 0 instructions: 220000000 cycles: 256521482 heartbeat IPC: 0.528707 cumulative IPC: 0.552776 (Simulation time: 0 hr 7 min 15 sec) 
Heartbeat CPU 0 instructions: 230000002 cycles: 275691626 heartbeat IPC: 0.521645 cumulative IPC: 0.55025 (Simulation time: 0 hr 7 min 37 sec) 
Heartbeat CPU 0 instructions: 240000002 cycles: 300740286 heartbeat IPC: 0.399223 cumulative IPC: 0.535773 (Simulation time: 0 hr 8 min 12 sec) 
Heartbeat CPU 0 instructions: 250000003 cycles: 321026317 heartbeat IPC: 0.49295 cumulative IPC: 0.532688 (Simulation time: 0 hr 8 min 39 sec) 
Heartbeat CPU 0 instructions: 260000003 cycles: 338270819 heartbeat IPC: 0.579895 cumulative IPC: 0.535412 (Simulation time: 0 hr 9 min 1 sec) 
Heartbeat CPU 0 instructions: 270000001 cycles: 359224199 heartbeat IPC: 0.47725 cumulative IPC: 0.531601 (Simulation time: 0 hr 9 min 23 sec) 
Heartbeat CPU 0 instructions: 280000001 cycles: 389789682 heartbeat IPC: 0.327166 cumulative IPC: 0.513766 (Simulation time: 0 hr 9 min 47 sec) 
Heartbeat CPU 0 instructions: 290000003 cycles: 420341727 heartbeat IPC: 0.32731 cumulative IPC: 0.49881 (Simulation time: 0 hr 10 min 11 sec) 
Heartbeat CPU 0 instructions: 300000000 cycles: 446410401 heartbeat IPC: 0.383602 cumulative IPC: 0.491431 (Simulation time: 0 hr 10 min 43 sec) 
Heartbeat CPU 0 instructions: 310000001 cycles: 471311742 heartbeat IPC: 0.401585 cumulative IPC: 0.48625 (Simulation time: 0 hr 11 min 14 sec) 
Heartbeat CPU 0 instructions: 320000002 cycles: 494936687 heartbeat IPC: 0.423281 cumulative IPC: 0.482984 (Simulation time: 0 hr 11 min 35 sec) 
Heartbeat CPU 0 instructions: 330000000 cycles: 518423120 heartbeat IPC: 0.425778 cumulative IPC: 0.480179 (Simulation time: 0 hr 11 min 56 sec) 
Heartbeat CPU 0 instructions: 340000002 cycles: 553484082 heartbeat IPC: 0.285218 cumulative IPC: 0.466882 (Simulation time: 0 hr 12 min 19 sec) 
Heartbeat CPU 0 instructions: 350000000 cycles: 589178846 heartbeat IPC: 0.280153 cumulative IPC: 0.454758 (Simulation time: 0 hr 12 min 43 sec) 
Heartbeat CPU 0 instructions: 360000000 cycles: 621312270 heartbeat IPC: 0.311202 cumulative IPC: 0.44683 (Simulation time: 0 hr 13 min 11 sec) 
Heartbeat CPU 0 instructions: 370000000 cycles: 646413016 heartbeat IPC: 0.398395 cumulative IPC: 0.444827 (Simulation time: 0 hr 13 min 46 sec) 
Heartbeat CPU 0 instructions: 380000002 cycles: 681515225 heartbeat IPC: 0.284882 cumulative IPC: 0.436083 (Simulation time: 0 hr 14 min 13 sec) 
Heartbeat CPU 0 instructions: 390000001 cycles: 717428847 heartbeat IPC: 0.278446 cumulative IPC: 0.427733 (Simulation time: 0 hr 14 min 39 sec) 
Heartbeat CPU 0 instructions: 400000001 cycles: 746677059 heartbeat IPC: 0.341901 cumulative IPC: 0.424183 (Simulation time: 0 hr 15 min 11 sec) 
Heartbeat CPU 0 instructions: 410000000 cycles: 772818310 heartbeat IPC: 0.382537 cumulative IPC: 0.422699 (Simulation time: 0 hr 15 min 44 sec) 
Heartbeat CPU 0 instructions: 420000001 cycles: 802440153 heartbeat IPC: 0.337589 cumulative IPC: 0.419394 (Simulation time: 0 hr 16 min 6 sec) 
Heartbeat CPU 0 instructions: 430000001 cycles: 832058294 heartbeat IPC: 0.337631 cumulative IPC: 0.416339 (Simulation time: 0 hr 16 min 27 sec) 
Heartbeat CPU 0 instructions: 440000000 cycles: 864133876 heartbeat IPC: 0.311764 cumulative IPC: 0.412272 (Simulation time: 0 hr 16 min 48 sec) 
Heartbeat CPU 0 instructions: 450000001 cycles: 896749520 heartbeat IPC: 0.306601 cumulative IPC: 0.408252 (Simulation time: 0 hr 17 min 9 sec) 
Heartbeat CPU 0 instructions: 460000000 cycles: 929067248 heartbeat IPC: 0.309428 cumulative IPC: 0.404662 (Simulation time: 0 hr 17 min 30 sec) 
Heartbeat CPU 0 instructions: 470000000 cycles: 960150650 heartbeat IPC: 0.321715 cumulative IPC: 0.401861 (Simulation time: 0 hr 17 min 52 sec) 
Heartbeat CPU 0 instructions: 480000000 cycles: 988788291 heartbeat IPC: 0.349191 cumulative IPC: 0.400273 (Simulation time: 0 hr 18 min 20 sec) 
Heartbeat CPU 0 instructions: 490000000 cycles: 1013874147 heartbeat IPC: 0.398631 cumulative IPC: 0.40023 (Simulation time: 0 hr 18 min 55 sec) 
Heartbeat CPU 0 instructions: 500000002 cycles: 1049838240 heartbeat IPC: 0.278055 cumulative IPC: 0.395882 (Simulation time: 0 hr 19 min 21 sec) 
Heartbeat CPU 0 instructions: 510000001 cycles: 1085624909 heartbeat IPC: 0.279434 cumulative IPC: 0.391898 (Simulation time: 0 hr 19 min 47 sec) 
Heartbeat CPU 0 instructions: 520000001 cycles: 1113788394 heartbeat IPC: 0.35507 cumulative IPC: 0.390933 (Simulation time: 0 hr 20 min 20 sec) 
Heartbeat CPU 0 instructions: 530000002 cycles: 1139909952 heartbeat IPC: 0.382826 cumulative IPC: 0.390741 (Simulation time: 0 hr 20 min 52 sec) 
Heartbeat CPU 0 instructions: 540000000 cycles: 1167715022 heartbeat IPC: 0.359647 cumulative IPC: 0.389974 (Simulation time: 0 hr 21 min 14 sec) 
Heartbeat CPU 0 instructions: 550000000 cycles: 1195564493 heartbeat IPC: 0.359073 cumulative IPC: 0.38923 (Simulation time: 0 hr 21 min 36 sec) 
Heartbeat CPU 0 instructions: 560000003 cycles: 1220832455 heartbeat IPC: 0.395758 cumulative IPC: 0.38937 (Simulation time: 0 hr 22 min 9 sec) 
Heartbeat CPU 0 instructions: 570000000 cycles: 1246197149 heartbeat IPC: 0.394249 cumulative IPC: 0.389472 (Simulation time: 0 hr 22 min 39 sec) 
Heartbeat CPU 0 instructions: 580000002 cycles: 1271335367 heartbeat IPC: 0.397801 cumulative IPC: 0.389642 (Simulation time: 0 hr 23 min 0 sec) 
Heartbeat CPU 0 instructions: 590000003 cycles: 1295932309 heartbeat IPC: 0.406555 cumulative IPC: 0.389973 (Simulation time: 0 hr 23 min 22 sec) 
Heartbeat CPU 0 instructions: 600000003 cycles: 1314526789 heartbeat IPC: 0.537794 cumulative IPC: 0.392129 (Simulation time: 0 hr 23 min 44 sec) 
Heartbeat CPU 0 instructions: 610000003 cycles: 1333138265 heartbeat IPC: 0.537303 cumulative IPC: 0.394217 (Simulation time: 0 hr 24 min 6 sec) 
Heartbeat CPU 0 instructions: 620000000 cycles: 1356310263 heartbeat IPC: 0.431555 cumulative IPC: 0.394874 (Simulation time: 0 hr 24 min 37 sec) 
Heartbeat CPU 0 instructions: 630000000 cycles: 1380454450 heartbeat IPC: 0.414178 cumulative IPC: 0.395222 (Simulation time: 0 hr 25 min 8 sec) 
Heartbeat CPU 0 instructions: 640000001 cycles: 1401390071 heartbeat IPC: 0.477655 cumulative IPC: 0.396489 (Simulation time: 0 hr 25 min 30 sec) 
Heartbeat CPU 0 instructions: 650000003 cycles: 1422202489 heartbeat IPC: 0.480482 cumulative IPC: 0.397753 (Simulation time: 0 hr 25 min 52 sec) 
Heartbeat CPU 0 instructions: 660000000 cycles: 1447056136 heartbeat IPC: 0.402355 cumulative IPC: 0.397834 (Simulation time: 0 hr 26 min 27 sec) 
Heartbeat CPU 0 instructions: 670000001 cycles: 1468159596 heartbeat IPC: 0.473856 cumulative IPC: 0.398957 (Simulation time: 0 hr 26 min 56 sec) 
Heartbeat CPU 0 instructions: 680000003 cycles: 1484816475 heartbeat IPC: 0.600353 cumulative IPC: 0.401278 (Simulation time: 0 hr 27 min 18 sec) 
Heartbeat CPU 0 instructions: 690000000 cycles: 1502451983 heartbeat IPC: 0.567038 cumulative IPC: 0.403276 (Simulation time: 0 hr 27 min 42 sec) 
Heartbeat CPU 0 instructions: 700000000 cycles: 1527504092 heartbeat IPC: 0.399168 cumulative IPC: 0.403207 (Simulation time: 0 hr 28 min 17 sec) 
Heartbeat CPU 0 instructions: 710000001 cycles: 1545315892 heartbeat IPC: 0.561426 cumulative IPC: 0.405079 (Simulation time: 0 hr 28 min 44 sec) 
Heartbeat CPU 0 instructions: 720000000 cycles: 1559819989 heartbeat IPC: 0.68946 cumulative IPC: 0.407792 (Simulation time: 0 hr 29 min 6 sec) 
Heartbeat CPU 0 instructions: 730000000 cycles: 1573696928 heartbeat IPC: 0.72062 cumulative IPC: 0.410621 (Simulation time: 0 hr 29 min 28 sec) 
Heartbeat CPU 0 instructions: 740000002 cycles: 1588220986 heartbeat IPC: 0.688513 cumulative IPC: 0.413227 (Simulation time: 0 hr 29 min 51 sec) 
Heartbeat CPU 0 instructions: 750000001 cycles: 1602949071 heartbeat IPC: 0.678975 cumulative IPC: 0.41573 (Simulation time: 0 hr 30 min 14 sec) 
Heartbeat CPU 0 instructions: 760000001 cycles: 1627991253 heartbeat IPC: 0.399326 cumulative IPC: 0.415472 (Simulation time: 0 hr 30 min 49 sec) 
Heartbeat CPU 0 instructions: 770000000 cycles: 1647500953 heartbeat IPC: 0.512565 cumulative IPC: 0.41665 (Simulation time: 0 hr 31 min 19 sec) 
Heartbeat CPU 0 instructions: 780000002 cycles: 1663365450 heartbeat IPC: 0.630338 cumulative IPC: 0.418737 (Simulation time: 0 hr 31 min 45 sec) 
Heartbeat CPU 0 instructions: 790000003 cycles: 1680958850 heartbeat IPC: 0.568395 cumulative IPC: 0.420341 (Simulation time: 0 hr 32 min 13 sec) 
Heartbeat CPU 0 instructions: 800000003 cycles: 1705924402 heartbeat IPC: 0.400552 cumulative IPC: 0.420045 (Simulation time: 0 hr 32 min 48 sec) 
Heartbeat CPU 0 instructions: 810000000 cycles: 1722242852 heartbeat IPC: 0.612803 cumulative IPC: 0.421914 (Simulation time: 0 hr 33 min 13 sec) 
Heartbeat CPU 0 instructions: 820000000 cycles: 1736741079 heartbeat IPC: 0.68974 cumulative IPC: 0.424202 (Simulation time: 0 hr 33 min 36 sec) 
Heartbeat CPU 0 instructions: 830000000 cycles: 1750620332 heartbeat IPC: 0.7205 cumulative IPC: 0.426605 (Simulation time: 0 hr 33 min 57 sec) 
Heartbeat CPU 0 instructions: 840000001 cycles: 1765112839 heartbeat IPC: 0.690012 cumulative IPC: 0.428817 (Simulation time: 0 hr 34 min 20 sec) 
Heartbeat CPU 0 instructions: 850000000 cycles: 1781322948 heartbeat IPC: 0.616899 cumulative IPC: 0.430567 (Simulation time: 0 hr 34 min 45 sec) 
Heartbeat CPU 0 instructions: 860000000 cycles: 1806387921 heartbeat IPC: 0.398963 cumulative IPC: 0.430119 (Simulation time: 0 hr 35 min 20 sec) 
Heartbeat CPU 0 instructions: 870000001 cycles: 1824634954 heartbeat IPC: 0.548034 cumulative IPC: 0.431324 (Simulation time: 0 hr 35 min 48 sec) 
Heartbeat CPU 0 instructions: 880000000 cycles: 1840470785 heartbeat IPC: 0.631479 cumulative IPC: 0.433084 (Simulation time: 0 hr 36 min 15 sec) 
Heartbeat CPU 0 instructions: 890000002 cycles: 1854724795 heartbeat IPC: 0.701557 cumulative IPC: 0.435192 (Simulation time: 0 hr 36 min 38 sec) 
Heartbeat CPU 0 instructions: 900000000 cycles: 1869295898 heartbeat IPC: 0.68629 cumulative IPC: 0.437192 (Simulation time: 0 hr 37 min 1 sec) 
Heartbeat CPU 0 instructions: 910000001 cycles: 1884614180 heartbeat IPC: 0.652815 cumulative IPC: 0.438982 (Simulation time: 0 hr 37 min 24 sec) 
Heartbeat CPU 0 instructions: 920000001 cycles: 1909630192 heartbeat IPC: 0.399744 cumulative IPC: 0.438457 (Simulation time: 0 hr 37 min 59 sec) 
Heartbeat CPU 0 instructions: 930000000 cycles: 1928376023 heartbeat IPC: 0.533452 cumulative IPC: 0.4394 (Simulation time: 0 hr 38 min 29 sec) 
Heartbeat CPU 0 instructions: 940000002 cycles: 1943766155 heartbeat IPC: 0.649767 cumulative IPC: 0.4411 (Simulation time: 0 hr 38 min 55 sec) 
Heartbeat CPU 0 instructions: 950000003 cycles: 1961571243 heartbeat IPC: 0.561637 cumulative IPC: 0.442216 (Simulation time: 0 hr 39 min 23 sec) 
Heartbeat CPU 0 instructions: 960000003 cycles: 1986479250 heartbeat IPC: 0.401477 cumulative IPC: 0.441695 (Simulation time: 0 hr 39 min 58 sec) 
Heartbeat CPU 0 instructions: 970000002 cycles: 2003373466 heartbeat IPC: 0.591919 cumulative IPC: 0.442988 (Simulation time: 0 hr 40 min 25 sec) 
Heartbeat CPU 0 instructions: 980000002 cycles: 2019181140 heartbeat IPC: 0.632604 cumulative IPC: 0.444502 (Simulation time: 0 hr 40 min 51 sec) 
Heartbeat CPU 0 instructions: 990000000 cycles: 2043689637 heartbeat IPC: 0.408022 cumulative IPC: 0.444055 (Simulation time: 0 hr 41 min 13 sec) 
Heartbeat CPU 0 instructions: 1000000002 cycles: 2075728670 heartbeat IPC: 0.312119 cumulative IPC: 0.44198 (Simulation time: 0 hr 41 min 35 sec) 
Heartbeat CPU 0 instructions: 1010000001 cycles: 2104472826 heartbeat IPC: 0.347897 cumulative IPC: 0.44067 (Simulation time: 0 hr 41 min 57 sec) 
Heartbeat CPU 0 instructions: 1020000001 cycles: 2119826233 heartbeat IPC: 0.651321 cumulative IPC: 0.442225 (Simulation time: 0 hr 42 min 23 sec) 
Heartbeat CPU 0 instructions: 1030000001 cycles: 2134886525 heartbeat IPC: 0.663998 cumulative IPC: 0.443819 (Simulation time: 0 hr 42 min 48 sec) 
Heartbeat CPU 0 instructions: 1040000002 cycles: 2158218893 heartbeat IPC: 0.428589 cumulative IPC: 0.443651 (Simulation time: 0 hr 43 min 22 sec) 
Heartbeat CPU 0 instructions: 1050000002 cycles: 2178313447 heartbeat IPC: 0.497647 cumulative IPC: 0.444158 (Simulation time: 0 hr 43 min 52 sec) 
Heartbeat CPU 0 instructions: 1060000002 cycles: 2191304233 heartbeat IPC: 0.769776 cumulative IPC: 0.446124 (Simulation time: 0 hr 44 min 15 sec) 
Heartbeat CPU 0 instructions: 1070000003 cycles: 2205094623 heartbeat IPC: 0.725143 cumulative IPC: 0.447901 (Simulation time: 0 hr 44 min 38 sec) 
Heartbeat CPU 0 instructions: 1080000003 cycles: 2230037550 heartbeat IPC: 0.400915 cumulative IPC: 0.447366 (Simulation time: 0 hr 45 min 13 sec) 
Heartbeat CPU 0 instructions: 1090000002 cycles: 2248339562 heartbeat IPC: 0.546388 cumulative IPC: 0.448186 (Simulation time: 0 hr 45 min 40 sec) 
Heartbeat CPU 0 instructions: 1100000000 cycles: 2262850533 heartbeat IPC: 0.689134 cumulative IPC: 0.449759 (Simulation time: 0 hr 46 min 2 sec) 
Finished CPU 0 instructions: 1000000002 cycles: 2223415145 cumulative IPC: 0.449759 (Simulation time: 0 hr 46 min 2 sec) 

ChampSim completed all CPUs

Region of Interest Statistics

CPU 0 cumulative IPC: 0.449759 instructions: 1000000002 cycles: 2223415145
L1D TOTAL     ACCESS:  130581943  HIT:  104357906  MISS:   26224037
L1D LOAD      ACCESS:   81674702  HIT:   55450852  MISS:   26223850
L1D RFO       ACCESS:   48907241  HIT:   48907054  MISS:        187
L1D PREFETCH  ACCESS:          0  HIT:          0  MISS:          0
L1D WRITEBACK ACCESS:          0  HIT:          0  MISS:          0
L1D PREFETCH  REQUESTED:          0  ISSUED:          0  USEFUL:          0  USELESS:          0
L1D AVERAGE MISS LATENCY: 181.888 cycles
L1I TOTAL     ACCESS:  219913226  HIT:  219913210  MISS:         16
L1I LOAD      ACCESS:  219913226  HIT:  219913210  MISS:         16
L1I RFO       ACCESS:          0  HIT:          0  MISS:          0
L1I PREFETCH  ACCESS:          0  HIT:          0  MISS:          0
L1I WRITEBACK ACCESS:          0  HIT:          0  MISS:          0
L1I PREFETCH  REQUESTED:          0  ISSUED:          0  USEFUL:          0  USELESS:          0
L1I AVERAGE MISS LATENCY: 216.375 cycles
L2C TOTAL     ACCESS:   40036375  HIT:   13812322  MISS:   26224053
L2C LOAD      ACCESS:   26223866  HIT:          0  MISS:   26223866
L2C RFO       ACCESS:        187  HIT:          0  MISS:        187
L2C PREFETCH  ACCESS:          0  HIT:          0  MISS:          0
L2C WRITEBACK ACCESS:   13812322  HIT:   13812322  MISS:          0
L2C PREFETCH  REQUESTED:          0  ISSUED:          0  USEFUL:          0  USELESS:          0
L2C AVERAGE MISS LATENCY: 166.504 cycles
LLC TOTAL     ACCESS:   40036375  HIT:     872622  MISS:   39163753
LLC LOAD      ACCESS:   26223866  HIT:     716099  MISS:   25507767
LLC RFO       ACCESS:        187  HIT:        104  MISS:         83
LLC PREFETCH  ACCESS:          0  HIT:          0  MISS:          0
LLC WRITEBACK ACCESS:   13812322  HIT:     156419  MISS:   13655903
LLC PREFETCH  REQUESTED:          0  ISSUED:          0  USEFUL:          0  USELESS:          0
LLC AVERAGE MISS LATENCY: 91.0526 cycles
Major fault: 0 Minor fault: 8200
==============================
Perceptron RRIP Stats:
   Num Updates: 28844092
   Num Trains:  1395
==============================
perceptron #0: -1 1 5 1 5 1 -5 5 3 9 -1 -7 5 3 1 -1 1 -1 1 1 -45 


DRAM Statistics
 CHANNEL 0
 RQ ROW_BUFFER_HIT:   11055328  ROW_BUFFER_MISS:   14452522
 DBUS_CONGESTED:   16403669
 WQ ROW_BUFFER_HIT:   10704244  ROW_BUFFER_MISS:    3107902  FULL:          0

 AVG_CONGESTED_CYCLE: 6

CPU 0 Branch Prediction Accuracy: 97.2039% MPKI: 4.75176 Average ROB Occupancy at Mispredict: 41.0905

Branch types
NOT_BRANCH: 830056091 83.0056%
BRANCH_DIRECT_JUMP: 4 4e-07%
BRANCH_INDIRECT: 50 5e-06%
BRANCH_CONDITIONAL: 169943694 16.9944%
BRANCH_DIRECT_CALL: 252 2.52e-05%
BRANCH_INDIRECT_CALL: 0 0%
BRANCH_RETURN: 250 2.5e-05%
BRANCH_OTHER: 0 0%

