
*** ChampSim Multicore Out-of-Order Simulator ***

Warmup Instructions: 100000000
Simulation Instructions: 1000000000
Number of CPUs: 1
LLC sets: 2048
LLC ways: 16
Off-chip DRAM Size: 4096 MB Channels: 1 Width: 64-bit Data Rate: 3200 MT/s

CPU 0 runs /scratch/user/kevin.weston/dpc3-traces/470.champsimtrace.xz
CPU 0 Bimodal branch predictor
Initialize RRPV
Initialize PRRIP state
Heartbeat CPU 0 instructions: 10000000 cycles: 3152172 heartbeat IPC: 3.17242 cumulative IPC: 3.17242 (Simulation time: 0 hr 0 min 22 sec) 
Heartbeat CPU 0 instructions: 20000000 cycles: 6302260 heartbeat IPC: 3.17451 cumulative IPC: 3.17346 (Simulation time: 0 hr 0 min 43 sec) 
Heartbeat CPU 0 instructions: 30000000 cycles: 9454303 heartbeat IPC: 3.17255 cumulative IPC: 3.17316 (Simulation time: 0 hr 1 min 5 sec) 
Heartbeat CPU 0 instructions: 40000000 cycles: 12606371 heartbeat IPC: 3.17252 cumulative IPC: 3.173 (Simulation time: 0 hr 1 min 26 sec) 
Heartbeat CPU 0 instructions: 50000001 cycles: 15758341 heartbeat IPC: 3.17262 cumulative IPC: 3.17292 (Simulation time: 0 hr 1 min 47 sec) 
Heartbeat CPU 0 instructions: 60000003 cycles: 18910244 heartbeat IPC: 3.17269 cumulative IPC: 3.17288 (Simulation time: 0 hr 2 min 9 sec) 
Heartbeat CPU 0 instructions: 70000002 cycles: 22062291 heartbeat IPC: 3.17254 cumulative IPC: 3.17283 (Simulation time: 0 hr 2 min 30 sec) 
Heartbeat CPU 0 instructions: 80000001 cycles: 25212522 heartbeat IPC: 3.17437 cumulative IPC: 3.17303 (Simulation time: 0 hr 2 min 52 sec) 
Heartbeat CPU 0 instructions: 90000000 cycles: 28364399 heartbeat IPC: 3.17271 cumulative IPC: 3.17299 (Simulation time: 0 hr 3 min 13 sec) 
Heartbeat CPU 0 instructions: 100000002 cycles: 31516435 heartbeat IPC: 3.17255 cumulative IPC: 3.17295 (Simulation time: 0 hr 3 min 35 sec) 

Warmup complete CPU 0 instructions: 100000002 cycles: 31516435 (Simulation time: 0 hr 3 min 35 sec) 

Heartbeat CPU 0 instructions: 110000000 cycles: 47929633 heartbeat IPC: 0.609266 cumulative IPC: 0.609266 (Simulation time: 0 hr 4 min 7 sec) 
Heartbeat CPU 0 instructions: 120000002 cycles: 64221745 heartbeat IPC: 0.613794 cumulative IPC: 0.611521 (Simulation time: 0 hr 4 min 38 sec) 
Heartbeat CPU 0 instructions: 130000000 cycles: 80582322 heartbeat IPC: 0.611225 cumulative IPC: 0.611423 (Simulation time: 0 hr 5 min 10 sec) 
Heartbeat CPU 0 instructions: 140000001 cycles: 96922961 heartbeat IPC: 0.611971 cumulative IPC: 0.61156 (Simulation time: 0 hr 5 min 42 sec) 
Heartbeat CPU 0 instructions: 150000001 cycles: 113167887 heartbeat IPC: 0.615577 cumulative IPC: 0.612359 (Simulation time: 0 hr 6 min 13 sec) 
Heartbeat CPU 0 instructions: 160000000 cycles: 129643931 heartbeat IPC: 0.606942 cumulative IPC: 0.611449 (Simulation time: 0 hr 6 min 45 sec) 
Heartbeat CPU 0 instructions: 170000001 cycles: 145976024 heartbeat IPC: 0.612291 cumulative IPC: 0.61157 (Simulation time: 0 hr 7 min 16 sec) 
Heartbeat CPU 0 instructions: 180000002 cycles: 161511224 heartbeat IPC: 0.6437 cumulative IPC: 0.615409 (Simulation time: 0 hr 7 min 47 sec) 
Heartbeat CPU 0 instructions: 190000002 cycles: 177833921 heartbeat IPC: 0.612644 cumulative IPC: 0.615101 (Simulation time: 0 hr 8 min 19 sec) 
Heartbeat CPU 0 instructions: 200000003 cycles: 193879791 heartbeat IPC: 0.623213 cumulative IPC: 0.615903 (Simulation time: 0 hr 8 min 51 sec) 
Heartbeat CPU 0 instructions: 210000000 cycles: 210149193 heartbeat IPC: 0.614651 cumulative IPC: 0.615789 (Simulation time: 0 hr 9 min 22 sec) 
Heartbeat CPU 0 instructions: 220000000 cycles: 226455659 heartbeat IPC: 0.613254 cumulative IPC: 0.615576 (Simulation time: 0 hr 9 min 54 sec) 
Heartbeat CPU 0 instructions: 230000003 cycles: 242452300 heartbeat IPC: 0.625131 cumulative IPC: 0.616301 (Simulation time: 0 hr 10 min 25 sec) 
Heartbeat CPU 0 instructions: 240000003 cycles: 258625209 heartbeat IPC: 0.618318 cumulative IPC: 0.616445 (Simulation time: 0 hr 10 min 57 sec) 
Heartbeat CPU 0 instructions: 250000001 cycles: 274787908 heartbeat IPC: 0.618708 cumulative IPC: 0.616595 (Simulation time: 0 hr 11 min 28 sec) 
Heartbeat CPU 0 instructions: 260000000 cycles: 291082661 heartbeat IPC: 0.613694 cumulative IPC: 0.616413 (Simulation time: 0 hr 12 min 0 sec) 
Heartbeat CPU 0 instructions: 270000003 cycles: 318140106 heartbeat IPC: 0.369584 cumulative IPC: 0.593112 (Simulation time: 0 hr 12 min 45 sec) 
Heartbeat CPU 0 instructions: 280000002 cycles: 334470336 heartbeat IPC: 0.612361 cumulative IPC: 0.59415 (Simulation time: 0 hr 13 min 16 sec) 
Heartbeat CPU 0 instructions: 290000002 cycles: 351000044 heartbeat IPC: 0.604971 cumulative IPC: 0.59471 (Simulation time: 0 hr 13 min 48 sec) 
Heartbeat CPU 0 instructions: 300000000 cycles: 367376700 heartbeat IPC: 0.610625 cumulative IPC: 0.595486 (Simulation time: 0 hr 14 min 20 sec) 
Heartbeat CPU 0 instructions: 310000001 cycles: 384069156 heartbeat IPC: 0.599073 cumulative IPC: 0.595656 (Simulation time: 0 hr 14 min 52 sec) 
Heartbeat CPU 0 instructions: 320000000 cycles: 401286919 heartbeat IPC: 0.580795 cumulative IPC: 0.594964 (Simulation time: 0 hr 15 min 25 sec) 
Heartbeat CPU 0 instructions: 330000000 cycles: 418834891 heartbeat IPC: 0.569866 cumulative IPC: 0.593827 (Simulation time: 0 hr 15 min 57 sec) 
Heartbeat CPU 0 instructions: 340000000 cycles: 436798488 heartbeat IPC: 0.556681 cumulative IPC: 0.59218 (Simulation time: 0 hr 16 min 31 sec) 
Heartbeat CPU 0 instructions: 350000000 cycles: 454919496 heartbeat IPC: 0.551846 cumulative IPC: 0.590454 (Simulation time: 0 hr 17 min 5 sec) 
Heartbeat CPU 0 instructions: 360000003 cycles: 473175873 heartbeat IPC: 0.547754 cumulative IPC: 0.588689 (Simulation time: 0 hr 17 min 38 sec) 
Heartbeat CPU 0 instructions: 370000000 cycles: 491234721 heartbeat IPC: 0.553745 cumulative IPC: 0.587316 (Simulation time: 0 hr 18 min 12 sec) 
Heartbeat CPU 0 instructions: 380000001 cycles: 509385611 heartbeat IPC: 0.550937 cumulative IPC: 0.585934 (Simulation time: 0 hr 18 min 46 sec) 
Heartbeat CPU 0 instructions: 390000000 cycles: 527460569 heartbeat IPC: 0.553252 cumulative IPC: 0.584743 (Simulation time: 0 hr 19 min 20 sec) 
Heartbeat CPU 0 instructions: 400000001 cycles: 545171976 heartbeat IPC: 0.564608 cumulative IPC: 0.584049 (Simulation time: 0 hr 19 min 53 sec) 
Heartbeat CPU 0 instructions: 410000001 cycles: 562445793 heartbeat IPC: 0.578911 cumulative IPC: 0.583882 (Simulation time: 0 hr 20 min 26 sec) 
Heartbeat CPU 0 instructions: 420000003 cycles: 579589074 heartbeat IPC: 0.583319 cumulative IPC: 0.583864 (Simulation time: 0 hr 20 min 59 sec) 
Heartbeat CPU 0 instructions: 430000001 cycles: 596213943 heartbeat IPC: 0.601508 cumulative IPC: 0.584384 (Simulation time: 0 hr 21 min 31 sec) 
Heartbeat CPU 0 instructions: 440000000 cycles: 613069976 heartbeat IPC: 0.593259 cumulative IPC: 0.584641 (Simulation time: 0 hr 22 min 3 sec) 
Heartbeat CPU 0 instructions: 450000001 cycles: 629897654 heartbeat IPC: 0.594259 cumulative IPC: 0.584911 (Simulation time: 0 hr 22 min 36 sec) 
Heartbeat CPU 0 instructions: 460000001 cycles: 646807736 heartbeat IPC: 0.591363 cumulative IPC: 0.585089 (Simulation time: 0 hr 23 min 8 sec) 
Heartbeat CPU 0 instructions: 470000000 cycles: 663555099 heartbeat IPC: 0.597109 cumulative IPC: 0.585407 (Simulation time: 0 hr 23 min 41 sec) 
Heartbeat CPU 0 instructions: 480000001 cycles: 680380660 heartbeat IPC: 0.594334 cumulative IPC: 0.585639 (Simulation time: 0 hr 24 min 13 sec) 
Heartbeat CPU 0 instructions: 490000000 cycles: 696936192 heartbeat IPC: 0.604028 cumulative IPC: 0.586096 (Simulation time: 0 hr 24 min 45 sec) 
Heartbeat CPU 0 instructions: 500000000 cycles: 713540359 heartbeat IPC: 0.602258 cumulative IPC: 0.58649 (Simulation time: 0 hr 25 min 18 sec) 
Heartbeat CPU 0 instructions: 510000001 cycles: 730264209 heartbeat IPC: 0.597948 cumulative IPC: 0.586764 (Simulation time: 0 hr 25 min 50 sec) 
Heartbeat CPU 0 instructions: 520000002 cycles: 747022767 heartbeat IPC: 0.59671 cumulative IPC: 0.586997 (Simulation time: 0 hr 26 min 22 sec) 
Heartbeat CPU 0 instructions: 530000000 cycles: 763817191 heartbeat IPC: 0.595436 cumulative IPC: 0.58719 (Simulation time: 0 hr 26 min 54 sec) 
Heartbeat CPU 0 instructions: 540000001 cycles: 780552022 heartbeat IPC: 0.597556 cumulative IPC: 0.587422 (Simulation time: 0 hr 27 min 27 sec) 
Heartbeat CPU 0 instructions: 550000000 cycles: 797219946 heartbeat IPC: 0.599955 cumulative IPC: 0.587695 (Simulation time: 0 hr 27 min 59 sec) 
Heartbeat CPU 0 instructions: 560000003 cycles: 814100846 heartbeat IPC: 0.592386 cumulative IPC: 0.587796 (Simulation time: 0 hr 28 min 32 sec) 
Heartbeat CPU 0 instructions: 570000001 cycles: 830830028 heartbeat IPC: 0.597758 cumulative IPC: 0.588005 (Simulation time: 0 hr 29 min 4 sec) 
Heartbeat CPU 0 instructions: 580000001 cycles: 847633757 heartbeat IPC: 0.595106 cumulative IPC: 0.588151 (Simulation time: 0 hr 29 min 36 sec) 
Heartbeat CPU 0 instructions: 590000001 cycles: 864450022 heartbeat IPC: 0.594662 cumulative IPC: 0.588282 (Simulation time: 0 hr 30 min 9 sec) 
Heartbeat CPU 0 instructions: 600000001 cycles: 881215467 heartbeat IPC: 0.596465 cumulative IPC: 0.588444 (Simulation time: 0 hr 30 min 41 sec) 
Heartbeat CPU 0 instructions: 610000001 cycles: 897645608 heartbeat IPC: 0.608638 cumulative IPC: 0.588827 (Simulation time: 0 hr 31 min 13 sec) 
Heartbeat CPU 0 instructions: 620000000 cycles: 914108591 heartbeat IPC: 0.607423 cumulative IPC: 0.589174 (Simulation time: 0 hr 31 min 46 sec) 
Heartbeat CPU 0 instructions: 630000000 cycles: 930539792 heartbeat IPC: 0.608598 cumulative IPC: 0.589529 (Simulation time: 0 hr 32 min 17 sec) 
Heartbeat CPU 0 instructions: 640000000 cycles: 947357880 heartbeat IPC: 0.594598 cumulative IPC: 0.589622 (Simulation time: 0 hr 32 min 50 sec) 
Heartbeat CPU 0 instructions: 650000000 cycles: 963977309 heartbeat IPC: 0.601705 cumulative IPC: 0.589837 (Simulation time: 0 hr 33 min 22 sec) 
Heartbeat CPU 0 instructions: 660000000 cycles: 980754755 heartbeat IPC: 0.596038 cumulative IPC: 0.589947 (Simulation time: 0 hr 33 min 54 sec) 
Heartbeat CPU 0 instructions: 670000000 cycles: 996809386 heartbeat IPC: 0.622873 cumulative IPC: 0.590494 (Simulation time: 0 hr 34 min 26 sec) 
Heartbeat CPU 0 instructions: 680000001 cycles: 1013559492 heartbeat IPC: 0.597011 cumulative IPC: 0.590605 (Simulation time: 0 hr 34 min 57 sec) 
Heartbeat CPU 0 instructions: 690000001 cycles: 1030460487 heartbeat IPC: 0.591681 cumulative IPC: 0.590624 (Simulation time: 0 hr 35 min 29 sec) 
Heartbeat CPU 0 instructions: 700000000 cycles: 1047998926 heartbeat IPC: 0.570176 cumulative IPC: 0.590271 (Simulation time: 0 hr 36 min 2 sec) 
Heartbeat CPU 0 instructions: 710000000 cycles: 1075845708 heartbeat IPC: 0.359108 cumulative IPC: 0.584107 (Simulation time: 0 hr 36 min 47 sec) 
Heartbeat CPU 0 instructions: 720000002 cycles: 1092705059 heartbeat IPC: 0.593143 cumulative IPC: 0.584251 (Simulation time: 0 hr 37 min 19 sec) 
Heartbeat CPU 0 instructions: 730000000 cycles: 1109644425 heartbeat IPC: 0.590341 cumulative IPC: 0.584346 (Simulation time: 0 hr 37 min 51 sec) 
Heartbeat CPU 0 instructions: 740000002 cycles: 1126421647 heartbeat IPC: 0.596046 cumulative IPC: 0.584525 (Simulation time: 0 hr 38 min 23 sec) 
Heartbeat CPU 0 instructions: 750000001 cycles: 1143807148 heartbeat IPC: 0.575192 cumulative IPC: 0.58438 (Simulation time: 0 hr 38 min 56 sec) 
Heartbeat CPU 0 instructions: 760000003 cycles: 1161814406 heartbeat IPC: 0.555332 cumulative IPC: 0.583917 (Simulation time: 0 hr 39 min 29 sec) 
Heartbeat CPU 0 instructions: 770000000 cycles: 1179818548 heartbeat IPC: 0.555428 cumulative IPC: 0.58347 (Simulation time: 0 hr 40 min 2 sec) 
Heartbeat CPU 0 instructions: 780000002 cycles: 1198506061 heartbeat IPC: 0.535117 cumulative IPC: 0.582696 (Simulation time: 0 hr 40 min 36 sec) 
Heartbeat CPU 0 instructions: 790000000 cycles: 1217011443 heartbeat IPC: 0.540383 cumulative IPC: 0.582035 (Simulation time: 0 hr 41 min 10 sec) 
Heartbeat CPU 0 instructions: 800000003 cycles: 1235498811 heartbeat IPC: 0.54091 cumulative IPC: 0.581404 (Simulation time: 0 hr 41 min 43 sec) 
Heartbeat CPU 0 instructions: 810000001 cycles: 1254153534 heartbeat IPC: 0.536057 cumulative IPC: 0.580712 (Simulation time: 0 hr 42 min 17 sec) 
Heartbeat CPU 0 instructions: 820000002 cycles: 1272886982 heartbeat IPC: 0.533805 cumulative IPC: 0.580004 (Simulation time: 0 hr 42 min 51 sec) 
Heartbeat CPU 0 instructions: 830000003 cycles: 1291064696 heartbeat IPC: 0.550124 cumulative IPC: 0.579573 (Simulation time: 0 hr 43 min 25 sec) 
Heartbeat CPU 0 instructions: 840000003 cycles: 1308958282 heartbeat IPC: 0.558859 cumulative IPC: 0.579283 (Simulation time: 0 hr 43 min 58 sec) 
Heartbeat CPU 0 instructions: 850000003 cycles: 1326563023 heartbeat IPC: 0.568029 cumulative IPC: 0.57913 (Simulation time: 0 hr 44 min 30 sec) 
Heartbeat CPU 0 instructions: 860000000 cycles: 1344144433 heartbeat IPC: 0.568782 cumulative IPC: 0.578991 (Simulation time: 0 hr 45 min 3 sec) 
Heartbeat CPU 0 instructions: 870000000 cycles: 1361125873 heartbeat IPC: 0.588878 cumulative IPC: 0.579117 (Simulation time: 0 hr 45 min 35 sec) 
Heartbeat CPU 0 instructions: 880000000 cycles: 1377259394 heartbeat IPC: 0.619828 cumulative IPC: 0.579605 (Simulation time: 0 hr 46 min 7 sec) 
Heartbeat CPU 0 instructions: 890000000 cycles: 1393651023 heartbeat IPC: 0.610067 cumulative IPC: 0.579972 (Simulation time: 0 hr 46 min 38 sec) 
Heartbeat CPU 0 instructions: 900000000 cycles: 1409977393 heartbeat IPC: 0.612506 cumulative IPC: 0.580357 (Simulation time: 0 hr 47 min 9 sec) 
Heartbeat CPU 0 instructions: 910000003 cycles: 1426248543 heartbeat IPC: 0.614585 cumulative IPC: 0.580757 (Simulation time: 0 hr 47 min 41 sec) 
Heartbeat CPU 0 instructions: 920000000 cycles: 1442765332 heartbeat IPC: 0.605444 cumulative IPC: 0.581046 (Simulation time: 0 hr 48 min 12 sec) 
Heartbeat CPU 0 instructions: 930000001 cycles: 1458902054 heartbeat IPC: 0.619705 cumulative IPC: 0.581483 (Simulation time: 0 hr 48 min 44 sec) 
Heartbeat CPU 0 instructions: 940000003 cycles: 1475276406 heartbeat IPC: 0.610711 cumulative IPC: 0.581814 (Simulation time: 0 hr 49 min 15 sec) 
Heartbeat CPU 0 instructions: 950000003 cycles: 1491530693 heartbeat IPC: 0.615222 cumulative IPC: 0.582186 (Simulation time: 0 hr 49 min 47 sec) 
Heartbeat CPU 0 instructions: 960000003 cycles: 1507876417 heartbeat IPC: 0.611781 cumulative IPC: 0.582514 (Simulation time: 0 hr 50 min 18 sec) 
Heartbeat CPU 0 instructions: 970000000 cycles: 1524247269 heartbeat IPC: 0.610842 cumulative IPC: 0.582824 (Simulation time: 0 hr 50 min 49 sec) 
Heartbeat CPU 0 instructions: 980000000 cycles: 1540521114 heartbeat IPC: 0.614483 cumulative IPC: 0.583166 (Simulation time: 0 hr 51 min 20 sec) 
Heartbeat CPU 0 instructions: 990000000 cycles: 1556764621 heartbeat IPC: 0.615631 cumulative IPC: 0.583512 (Simulation time: 0 hr 51 min 51 sec) 
Heartbeat CPU 0 instructions: 1000000003 cycles: 1573088960 heartbeat IPC: 0.612582 cumulative IPC: 0.583819 (Simulation time: 0 hr 52 min 22 sec) 
Heartbeat CPU 0 instructions: 1010000001 cycles: 1589467806 heartbeat IPC: 0.610543 cumulative IPC: 0.5841 (Simulation time: 0 hr 52 min 53 sec) 
Heartbeat CPU 0 instructions: 1020000000 cycles: 1605810577 heartbeat IPC: 0.611891 cumulative IPC: 0.584389 (Simulation time: 0 hr 53 min 24 sec) 
Heartbeat CPU 0 instructions: 1030000002 cycles: 1622252489 heartbeat IPC: 0.608202 cumulative IPC: 0.584635 (Simulation time: 0 hr 53 min 55 sec) 
Heartbeat CPU 0 instructions: 1040000003 cycles: 1638566329 heartbeat IPC: 0.612977 cumulative IPC: 0.584923 (Simulation time: 0 hr 54 min 26 sec) 
Heartbeat CPU 0 instructions: 1050000002 cycles: 1654372089 heartbeat IPC: 0.632681 cumulative IPC: 0.585388 (Simulation time: 0 hr 54 min 57 sec) 
Heartbeat CPU 0 instructions: 1060000003 cycles: 1670463492 heartbeat IPC: 0.62145 cumulative IPC: 0.585742 (Simulation time: 0 hr 55 min 27 sec) 
Heartbeat CPU 0 instructions: 1070000003 cycles: 1686329669 heartbeat IPC: 0.630272 cumulative IPC: 0.586169 (Simulation time: 0 hr 55 min 58 sec) 
Heartbeat CPU 0 instructions: 1080000000 cycles: 1702801883 heartbeat IPC: 0.607083 cumulative IPC: 0.586375 (Simulation time: 0 hr 56 min 29 sec) 
Heartbeat CPU 0 instructions: 1090000003 cycles: 1719138291 heartbeat IPC: 0.61213 cumulative IPC: 0.586624 (Simulation time: 0 hr 57 min 0 sec) 
Heartbeat CPU 0 instructions: 1100000000 cycles: 1735422984 heartbeat IPC: 0.614073 cumulative IPC: 0.586887 (Simulation time: 0 hr 57 min 30 sec) 
Finished CPU 0 instructions: 1000000000 cycles: 1703906551 cumulative IPC: 0.586887 (Simulation time: 0 hr 57 min 30 sec) 

ChampSim completed all CPUs

Region of Interest Statistics

CPU 0 cumulative IPC: 0.586887 instructions: 1000000000 cycles: 1703906551
L1D TOTAL     ACCESS:  159317823  HIT:  110410527  MISS:   48907296
L1D LOAD      ACCESS:   56936529  HIT:   49524779  MISS:    7411750
L1D RFO       ACCESS:  102381294  HIT:   60885748  MISS:   41495546
L1D PREFETCH  ACCESS:          0  HIT:          0  MISS:          0
L1D WRITEBACK ACCESS:          0  HIT:          0  MISS:          0
L1D PREFETCH  REQUESTED:          0  ISSUED:          0  USEFUL:          0  USELESS:          0
L1D AVERAGE MISS LATENCY: 291.019 cycles
L1I TOTAL     ACCESS:  159115897  HIT:  159115889  MISS:          8
L1I LOAD      ACCESS:  159115897  HIT:  159115889  MISS:          8
L1I RFO       ACCESS:          0  HIT:          0  MISS:          0
L1I PREFETCH  ACCESS:          0  HIT:          0  MISS:          0
L1I WRITEBACK ACCESS:          0  HIT:          0  MISS:          0
L1I PREFETCH  REQUESTED:          0  ISSUED:          0  USEFUL:          0  USELESS:          0
L1I AVERAGE MISS LATENCY: 375.25 cycles
L2C TOTAL     ACCESS:   90402830  HIT:   60399457  MISS:   30003373
L2C LOAD      ACCESS:    7411758  HIT:        959  MISS:    7410799
L2C RFO       ACCESS:   41495519  HIT:   19032416  MISS:   22463103
L2C PREFETCH  ACCESS:          0  HIT:          0  MISS:          0
L2C WRITEBACK ACCESS:   41495553  HIT:   41366082  MISS:     129471
L2C PREFETCH  REQUESTED:          0  ISSUED:          0  USEFUL:          0  USELESS:          0
L2C AVERAGE MISS LATENCY: 446.347 cycles
LLC TOTAL     ACCESS:   52388137  HIT:    1683247  MISS:   50704890
LLC LOAD      ACCESS:    7410799  HIT:        166  MISS:    7410633
LLC RFO       ACCESS:   22463058  HIT:     558652  MISS:   21904406
LLC PREFETCH  ACCESS:          0  HIT:          0  MISS:          0
LLC WRITEBACK ACCESS:   22514280  HIT:    1124429  MISS:   21389851
LLC PREFETCH  REQUESTED:          0  ISSUED:          0  USEFUL:          0  USELESS:          0
LLC AVERAGE MISS LATENCY: 245.678 cycles
Major fault: 0 Minor fault: 103151
==============================
Perceptron RRIP Stats:
   Num Updates: 32706887
   Num Trains:  542794
==============================
perceptron #0: -17 -1 -13 -9 1 7 5 -9 17 21 -5 13 -5 7 5 3 3 5 1 -19 1 1 -1 35 35 35 -35 

perceptron #1: -18 -2 -14 -10 2 12 2 -12 18 22 -10 14 -8 4 10 6 2 6 0 -16 4 2 -2 36 36 -36 -36 

perceptron #2: -23 1 -13 -7 9 13 5 -9 15 21 -5 15 -5 5 9 3 7 3 1 -21 5 1 -3 37 -37 37 -37 

perceptron #3: -20 -2 -14 -12 6 8 2 -10 16 22 -6 14 -4 6 6 4 4 2 0 -16 4 2 2 34 -34 -34 -34 

perceptron #4: -20 0 -12 -8 4 10 0 -10 18 22 -6 12 -10 8 6 4 8 4 2 -16 2 -4 0 -36 36 36 -36 

perceptron #5: -18 0 -18 -6 4 10 4 -12 18 24 -8 18 -4 4 8 4 6 4 2 -20 -2 2 4 -36 36 -36 -36 

perceptron #6: -22 -2 -14 -8 2 10 0 -8 20 22 -10 12 -6 6 8 6 6 6 4 -22 4 0 2 -36 -36 36 -36 

perceptron #7: -20 0 -16 -14 8 12 2 -10 16 20 -6 16 -2 6 6 4 8 4 6 -20 2 2 2 -36 -36 -36 -36 


DRAM Statistics
 CHANNEL 0
 RQ ROW_BUFFER_HIT:    2365982  ROW_BUFFER_MISS:   26947393
 DBUS_CONGESTED:   29599268
 WQ ROW_BUFFER_HIT:    5705128  ROW_BUFFER_MISS:   16201683  FULL:          0

 AVG_CONGESTED_CYCLE: 6

CPU 0 Branch Prediction Accuracy: 99.2955% MPKI: 0.099075 Average ROB Occupancy at Mispredict: 182.549

Branch types
NOT_BRANCH: 985936524 98.5937%
BRANCH_DIRECT_JUMP: 5411566 0.541157%
BRANCH_INDIRECT: 0 0%
BRANCH_CONDITIONAL: 8651860 0.865186%
BRANCH_DIRECT_CALL: 4 4e-07%
BRANCH_INDIRECT_CALL: 0 0%
BRANCH_RETURN: 4 4e-07%
BRANCH_OTHER: 0 0%

