
*** ChampSim Multicore Out-of-Order Simulator ***

Warmup Instructions: 100000000
Simulation Instructions: 1000000000
Number of CPUs: 1
LLC sets: 2048
LLC ways: 16
Off-chip DRAM Size: 4096 MB Channels: 1 Width: 64-bit Data Rate: 3200 MT/s

CPU 0 runs /scratch/user/kevin.weston/dpc3-traces/471.champsimtrace.xz
CPU 0 Bimodal branch predictor
Initialize RRPV
Initialize PRRIP state
Heartbeat CPU 0 instructions: 10000003 cycles: 4306044 heartbeat IPC: 2.32232 cumulative IPC: 2.32232 (Simulation time: 0 hr 0 min 25 sec) 
Heartbeat CPU 0 instructions: 20000003 cycles: 8528471 heartbeat IPC: 2.36831 cumulative IPC: 2.34509 (Simulation time: 0 hr 0 min 51 sec) 
Heartbeat CPU 0 instructions: 30000000 cycles: 12816334 heartbeat IPC: 2.33216 cumulative IPC: 2.34076 (Simulation time: 0 hr 1 min 16 sec) 
Heartbeat CPU 0 instructions: 40000002 cycles: 17073105 heartbeat IPC: 2.3492 cumulative IPC: 2.34287 (Simulation time: 0 hr 1 min 42 sec) 
Heartbeat CPU 0 instructions: 50000003 cycles: 21332693 heartbeat IPC: 2.34765 cumulative IPC: 2.34382 (Simulation time: 0 hr 2 min 7 sec) 
Heartbeat CPU 0 instructions: 60000003 cycles: 25613409 heartbeat IPC: 2.33606 cumulative IPC: 2.34252 (Simulation time: 0 hr 2 min 33 sec) 
Heartbeat CPU 0 instructions: 70000000 cycles: 29862667 heartbeat IPC: 2.35335 cumulative IPC: 2.34406 (Simulation time: 0 hr 2 min 58 sec) 
Heartbeat CPU 0 instructions: 80000003 cycles: 34136650 heartbeat IPC: 2.33974 cumulative IPC: 2.34352 (Simulation time: 0 hr 3 min 24 sec) 
Heartbeat CPU 0 instructions: 90000003 cycles: 38418888 heartbeat IPC: 2.33523 cumulative IPC: 2.3426 (Simulation time: 0 hr 3 min 49 sec) 
Heartbeat CPU 0 instructions: 100000000 cycles: 42681655 heartbeat IPC: 2.34589 cumulative IPC: 2.34293 (Simulation time: 0 hr 4 min 15 sec) 

Warmup complete CPU 0 instructions: 100000004 cycles: 42681656 (Simulation time: 0 hr 4 min 15 sec) 

Heartbeat CPU 0 instructions: 110000000 cycles: 79452573 heartbeat IPC: 0.271954 cumulative IPC: 0.271954 (Simulation time: 0 hr 4 min 43 sec) 
Heartbeat CPU 0 instructions: 120000000 cycles: 116588346 heartbeat IPC: 0.269282 cumulative IPC: 0.270611 (Simulation time: 0 hr 5 min 11 sec) 
Heartbeat CPU 0 instructions: 130000000 cycles: 151086921 heartbeat IPC: 0.289867 cumulative IPC: 0.276739 (Simulation time: 0 hr 5 min 39 sec) 
Heartbeat CPU 0 instructions: 140000001 cycles: 187766664 heartbeat IPC: 0.27263 cumulative IPC: 0.2757 (Simulation time: 0 hr 6 min 7 sec) 
Heartbeat CPU 0 instructions: 150000001 cycles: 222834128 heartbeat IPC: 0.285165 cumulative IPC: 0.277543 (Simulation time: 0 hr 6 min 34 sec) 
Heartbeat CPU 0 instructions: 160000000 cycles: 258292173 heartbeat IPC: 0.282023 cumulative IPC: 0.27828 (Simulation time: 0 hr 7 min 2 sec) 
Heartbeat CPU 0 instructions: 170000003 cycles: 295038476 heartbeat IPC: 0.272136 cumulative IPC: 0.277385 (Simulation time: 0 hr 7 min 30 sec) 
Heartbeat CPU 0 instructions: 180000002 cycles: 330862650 heartbeat IPC: 0.279141 cumulative IPC: 0.277603 (Simulation time: 0 hr 7 min 58 sec) 
Heartbeat CPU 0 instructions: 190000003 cycles: 367250705 heartbeat IPC: 0.274815 cumulative IPC: 0.277291 (Simulation time: 0 hr 8 min 25 sec) 
Heartbeat CPU 0 instructions: 200000000 cycles: 403139468 heartbeat IPC: 0.278639 cumulative IPC: 0.277425 (Simulation time: 0 hr 8 min 53 sec) 
Heartbeat CPU 0 instructions: 210000000 cycles: 440581020 heartbeat IPC: 0.267083 cumulative IPC: 0.276452 (Simulation time: 0 hr 9 min 22 sec) 
Heartbeat CPU 0 instructions: 220000000 cycles: 478939948 heartbeat IPC: 0.260696 cumulative IPC: 0.275066 (Simulation time: 0 hr 9 min 50 sec) 
Heartbeat CPU 0 instructions: 230000002 cycles: 517946623 heartbeat IPC: 0.256366 cumulative IPC: 0.273532 (Simulation time: 0 hr 10 min 20 sec) 
Heartbeat CPU 0 instructions: 240000002 cycles: 554929906 heartbeat IPC: 0.270392 cumulative IPC: 0.273305 (Simulation time: 0 hr 10 min 48 sec) 
Heartbeat CPU 0 instructions: 250000000 cycles: 592700792 heartbeat IPC: 0.264754 cumulative IPC: 0.272718 (Simulation time: 0 hr 11 min 17 sec) 
Heartbeat CPU 0 instructions: 260000003 cycles: 629005225 heartbeat IPC: 0.275449 cumulative IPC: 0.272887 (Simulation time: 0 hr 11 min 45 sec) 
Heartbeat CPU 0 instructions: 270000003 cycles: 665761329 heartbeat IPC: 0.272064 cumulative IPC: 0.272838 (Simulation time: 0 hr 12 min 13 sec) 
Heartbeat CPU 0 instructions: 280000000 cycles: 701912435 heartbeat IPC: 0.276617 cumulative IPC: 0.273046 (Simulation time: 0 hr 12 min 41 sec) 
Heartbeat CPU 0 instructions: 290000000 cycles: 736707287 heartbeat IPC: 0.287399 cumulative IPC: 0.273765 (Simulation time: 0 hr 13 min 9 sec) 
Heartbeat CPU 0 instructions: 300000002 cycles: 773090046 heartbeat IPC: 0.274856 cumulative IPC: 0.273819 (Simulation time: 0 hr 13 min 38 sec) 
Heartbeat CPU 0 instructions: 310000002 cycles: 808724998 heartbeat IPC: 0.280623 cumulative IPC: 0.274136 (Simulation time: 0 hr 14 min 7 sec) 
Heartbeat CPU 0 instructions: 320000000 cycles: 843249421 heartbeat IPC: 0.28965 cumulative IPC: 0.274805 (Simulation time: 0 hr 14 min 35 sec) 
Heartbeat CPU 0 instructions: 330000000 cycles: 878088797 heartbeat IPC: 0.287032 cumulative IPC: 0.275315 (Simulation time: 0 hr 15 min 2 sec) 
Heartbeat CPU 0 instructions: 340000002 cycles: 912689093 heartbeat IPC: 0.289015 cumulative IPC: 0.27586 (Simulation time: 0 hr 15 min 30 sec) 
Heartbeat CPU 0 instructions: 350000002 cycles: 947238238 heartbeat IPC: 0.289443 cumulative IPC: 0.276379 (Simulation time: 0 hr 15 min 58 sec) 
Heartbeat CPU 0 instructions: 360000003 cycles: 978022370 heartbeat IPC: 0.324843 cumulative IPC: 0.277974 (Simulation time: 0 hr 16 min 25 sec) 
Heartbeat CPU 0 instructions: 370000001 cycles: 1011320559 heartbeat IPC: 0.300317 cumulative IPC: 0.278742 (Simulation time: 0 hr 16 min 52 sec) 
Heartbeat CPU 0 instructions: 380000000 cycles: 1046528906 heartbeat IPC: 0.284024 cumulative IPC: 0.278927 (Simulation time: 0 hr 17 min 19 sec) 
Heartbeat CPU 0 instructions: 390000001 cycles: 1081302787 heartbeat IPC: 0.287572 cumulative IPC: 0.279216 (Simulation time: 0 hr 17 min 47 sec) 
Heartbeat CPU 0 instructions: 400000002 cycles: 1115615815 heartbeat IPC: 0.291435 cumulative IPC: 0.279607 (Simulation time: 0 hr 18 min 15 sec) 
Heartbeat CPU 0 instructions: 410000002 cycles: 1151065659 heartbeat IPC: 0.282089 cumulative IPC: 0.279686 (Simulation time: 0 hr 18 min 43 sec) 
Heartbeat CPU 0 instructions: 420000000 cycles: 1185070696 heartbeat IPC: 0.294074 cumulative IPC: 0.280115 (Simulation time: 0 hr 19 min 11 sec) 
Heartbeat CPU 0 instructions: 430000000 cycles: 1219241737 heartbeat IPC: 0.292645 cumulative IPC: 0.280479 (Simulation time: 0 hr 19 min 38 sec) 
Heartbeat CPU 0 instructions: 440000000 cycles: 1255157050 heartbeat IPC: 0.278433 cumulative IPC: 0.280418 (Simulation time: 0 hr 20 min 6 sec) 
Heartbeat CPU 0 instructions: 450000001 cycles: 1290357460 heartbeat IPC: 0.284088 cumulative IPC: 0.280522 (Simulation time: 0 hr 20 min 35 sec) 
Heartbeat CPU 0 instructions: 460000000 cycles: 1326811408 heartbeat IPC: 0.274319 cumulative IPC: 0.280345 (Simulation time: 0 hr 21 min 4 sec) 
Heartbeat CPU 0 instructions: 470000000 cycles: 1362410755 heartbeat IPC: 0.280904 cumulative IPC: 0.280361 (Simulation time: 0 hr 21 min 31 sec) 
Heartbeat CPU 0 instructions: 480000003 cycles: 1396365654 heartbeat IPC: 0.294508 cumulative IPC: 0.280715 (Simulation time: 0 hr 21 min 59 sec) 
Heartbeat CPU 0 instructions: 490000000 cycles: 1431464961 heartbeat IPC: 0.284906 cumulative IPC: 0.280821 (Simulation time: 0 hr 22 min 27 sec) 
Heartbeat CPU 0 instructions: 500000003 cycles: 1465997399 heartbeat IPC: 0.289583 cumulative IPC: 0.281034 (Simulation time: 0 hr 22 min 55 sec) 
Heartbeat CPU 0 instructions: 510000001 cycles: 1502805489 heartbeat IPC: 0.271679 cumulative IPC: 0.280798 (Simulation time: 0 hr 23 min 23 sec) 
Heartbeat CPU 0 instructions: 520000002 cycles: 1538115726 heartbeat IPC: 0.283204 cumulative IPC: 0.280855 (Simulation time: 0 hr 23 min 51 sec) 
Heartbeat CPU 0 instructions: 530000003 cycles: 1575140119 heartbeat IPC: 0.270092 cumulative IPC: 0.280595 (Simulation time: 0 hr 24 min 20 sec) 
Heartbeat CPU 0 instructions: 540000000 cycles: 1610379129 heartbeat IPC: 0.283776 cumulative IPC: 0.280666 (Simulation time: 0 hr 24 min 47 sec) 
Heartbeat CPU 0 instructions: 550000000 cycles: 1646469158 heartbeat IPC: 0.277085 cumulative IPC: 0.280586 (Simulation time: 0 hr 25 min 15 sec) 
Heartbeat CPU 0 instructions: 560000002 cycles: 1681886278 heartbeat IPC: 0.282349 cumulative IPC: 0.280624 (Simulation time: 0 hr 25 min 43 sec) 
Heartbeat CPU 0 instructions: 570000000 cycles: 1717518848 heartbeat IPC: 0.280642 cumulative IPC: 0.280624 (Simulation time: 0 hr 26 min 11 sec) 
Heartbeat CPU 0 instructions: 580000002 cycles: 1754151457 heartbeat IPC: 0.272981 cumulative IPC: 0.280461 (Simulation time: 0 hr 26 min 39 sec) 
Heartbeat CPU 0 instructions: 590000001 cycles: 1790229129 heartbeat IPC: 0.27718 cumulative IPC: 0.280393 (Simulation time: 0 hr 27 min 7 sec) 
Heartbeat CPU 0 instructions: 600000000 cycles: 1826205027 heartbeat IPC: 0.277964 cumulative IPC: 0.280344 (Simulation time: 0 hr 27 min 35 sec) 
Heartbeat CPU 0 instructions: 610000000 cycles: 1860946919 heartbeat IPC: 0.287837 cumulative IPC: 0.280487 (Simulation time: 0 hr 28 min 3 sec) 
Heartbeat CPU 0 instructions: 620000000 cycles: 1898143313 heartbeat IPC: 0.268843 cumulative IPC: 0.280254 (Simulation time: 0 hr 28 min 32 sec) 
Heartbeat CPU 0 instructions: 630000002 cycles: 1933977256 heartbeat IPC: 0.279065 cumulative IPC: 0.280231 (Simulation time: 0 hr 28 min 59 sec) 
Heartbeat CPU 0 instructions: 640000000 cycles: 1970884845 heartbeat IPC: 0.270947 cumulative IPC: 0.280053 (Simulation time: 0 hr 29 min 28 sec) 
Heartbeat CPU 0 instructions: 650000000 cycles: 2007683591 heartbeat IPC: 0.271748 cumulative IPC: 0.279898 (Simulation time: 0 hr 29 min 56 sec) 
Heartbeat CPU 0 instructions: 660000000 cycles: 2043739586 heartbeat IPC: 0.277346 cumulative IPC: 0.279852 (Simulation time: 0 hr 30 min 24 sec) 
Heartbeat CPU 0 instructions: 670000000 cycles: 2080971517 heartbeat IPC: 0.268587 cumulative IPC: 0.279646 (Simulation time: 0 hr 30 min 53 sec) 
Heartbeat CPU 0 instructions: 680000002 cycles: 2117692581 heartbeat IPC: 0.272323 cumulative IPC: 0.279517 (Simulation time: 0 hr 31 min 21 sec) 
Heartbeat CPU 0 instructions: 690000000 cycles: 2154178678 heartbeat IPC: 0.274077 cumulative IPC: 0.279423 (Simulation time: 0 hr 31 min 50 sec) 
Heartbeat CPU 0 instructions: 700000000 cycles: 2186917682 heartbeat IPC: 0.305446 cumulative IPC: 0.27982 (Simulation time: 0 hr 32 min 16 sec) 
Heartbeat CPU 0 instructions: 710000001 cycles: 2217030408 heartbeat IPC: 0.332086 cumulative IPC: 0.280544 (Simulation time: 0 hr 32 min 42 sec) 
Heartbeat CPU 0 instructions: 720000001 cycles: 2244224027 heartbeat IPC: 0.367733 cumulative IPC: 0.281621 (Simulation time: 0 hr 33 min 6 sec) 
Heartbeat CPU 0 instructions: 730000000 cycles: 2276811995 heartbeat IPC: 0.306862 cumulative IPC: 0.281989 (Simulation time: 0 hr 33 min 33 sec) 
Heartbeat CPU 0 instructions: 740000000 cycles: 2310324240 heartbeat IPC: 0.298398 cumulative IPC: 0.282231 (Simulation time: 0 hr 34 min 0 sec) 
Heartbeat CPU 0 instructions: 750000000 cycles: 2343909267 heartbeat IPC: 0.297752 cumulative IPC: 0.282458 (Simulation time: 0 hr 34 min 28 sec) 
Heartbeat CPU 0 instructions: 760000002 cycles: 2379275391 heartbeat IPC: 0.282757 cumulative IPC: 0.282462 (Simulation time: 0 hr 34 min 55 sec) 
Heartbeat CPU 0 instructions: 770000000 cycles: 2415420978 heartbeat IPC: 0.276659 cumulative IPC: 0.282374 (Simulation time: 0 hr 35 min 24 sec) 
Heartbeat CPU 0 instructions: 780000002 cycles: 2450780398 heartbeat IPC: 0.28281 cumulative IPC: 0.28238 (Simulation time: 0 hr 35 min 51 sec) 
Heartbeat CPU 0 instructions: 790000003 cycles: 2487469623 heartbeat IPC: 0.27256 cumulative IPC: 0.282233 (Simulation time: 0 hr 36 min 21 sec) 
Heartbeat CPU 0 instructions: 800000002 cycles: 2523000831 heartbeat IPC: 0.281443 cumulative IPC: 0.282222 (Simulation time: 0 hr 36 min 49 sec) 
Heartbeat CPU 0 instructions: 810000002 cycles: 2556822681 heartbeat IPC: 0.295667 cumulative IPC: 0.282403 (Simulation time: 0 hr 37 min 15 sec) 
Heartbeat CPU 0 instructions: 820000000 cycles: 2592801371 heartbeat IPC: 0.277942 cumulative IPC: 0.28234 (Simulation time: 0 hr 37 min 43 sec) 
Heartbeat CPU 0 instructions: 830000003 cycles: 2627749331 heartbeat IPC: 0.28614 cumulative IPC: 0.282391 (Simulation time: 0 hr 38 min 11 sec) 
Heartbeat CPU 0 instructions: 840000000 cycles: 2663519807 heartbeat IPC: 0.27956 cumulative IPC: 0.282352 (Simulation time: 0 hr 38 min 39 sec) 
Heartbeat CPU 0 instructions: 850000000 cycles: 2699378981 heartbeat IPC: 0.278869 cumulative IPC: 0.282305 (Simulation time: 0 hr 39 min 7 sec) 
Heartbeat CPU 0 instructions: 860000003 cycles: 2734647137 heartbeat IPC: 0.283542 cumulative IPC: 0.282322 (Simulation time: 0 hr 39 min 34 sec) 
Heartbeat CPU 0 instructions: 870000002 cycles: 2770965639 heartbeat IPC: 0.275342 cumulative IPC: 0.282229 (Simulation time: 0 hr 40 min 2 sec) 
Heartbeat CPU 0 instructions: 880000000 cycles: 2806756678 heartbeat IPC: 0.279399 cumulative IPC: 0.282192 (Simulation time: 0 hr 40 min 30 sec) 
Heartbeat CPU 0 instructions: 890000000 cycles: 2843067001 heartbeat IPC: 0.275404 cumulative IPC: 0.282104 (Simulation time: 0 hr 40 min 58 sec) 
Heartbeat CPU 0 instructions: 900000001 cycles: 2879594298 heartbeat IPC: 0.273768 cumulative IPC: 0.281997 (Simulation time: 0 hr 41 min 26 sec) 
Heartbeat CPU 0 instructions: 910000000 cycles: 2915892521 heartbeat IPC: 0.275496 cumulative IPC: 0.281915 (Simulation time: 0 hr 41 min 54 sec) 
Heartbeat CPU 0 instructions: 920000000 cycles: 2952486965 heartbeat IPC: 0.273266 cumulative IPC: 0.281806 (Simulation time: 0 hr 42 min 22 sec) 
Heartbeat CPU 0 instructions: 930000000 cycles: 2989698174 heartbeat IPC: 0.268736 cumulative IPC: 0.281641 (Simulation time: 0 hr 42 min 50 sec) 
Heartbeat CPU 0 instructions: 940000003 cycles: 3026054171 heartbeat IPC: 0.275058 cumulative IPC: 0.281561 (Simulation time: 0 hr 43 min 18 sec) 
Heartbeat CPU 0 instructions: 950000003 cycles: 3061203578 heartbeat IPC: 0.2845 cumulative IPC: 0.281595 (Simulation time: 0 hr 43 min 45 sec) 
Heartbeat CPU 0 instructions: 960000001 cycles: 3098199831 heartbeat IPC: 0.270298 cumulative IPC: 0.281458 (Simulation time: 0 hr 44 min 14 sec) 
Heartbeat CPU 0 instructions: 970000003 cycles: 3133244746 heartbeat IPC: 0.285348 cumulative IPC: 0.281502 (Simulation time: 0 hr 44 min 41 sec) 
Heartbeat CPU 0 instructions: 980000002 cycles: 3169909065 heartbeat IPC: 0.272745 cumulative IPC: 0.281399 (Simulation time: 0 hr 45 min 9 sec) 
Heartbeat CPU 0 instructions: 990000000 cycles: 3205262884 heartbeat IPC: 0.282855 cumulative IPC: 0.281416 (Simulation time: 0 hr 45 min 37 sec) 
Heartbeat CPU 0 instructions: 1000000000 cycles: 3243673799 heartbeat IPC: 0.260343 cumulative IPC: 0.281163 (Simulation time: 0 hr 46 min 6 sec) 
Heartbeat CPU 0 instructions: 1010000000 cycles: 3277655592 heartbeat IPC: 0.294275 cumulative IPC: 0.281301 (Simulation time: 0 hr 46 min 33 sec) 
Heartbeat CPU 0 instructions: 1020000002 cycles: 3312944759 heartbeat IPC: 0.283373 cumulative IPC: 0.281323 (Simulation time: 0 hr 47 min 0 sec) 
Heartbeat CPU 0 instructions: 1030000001 cycles: 3350953032 heartbeat IPC: 0.263101 cumulative IPC: 0.281114 (Simulation time: 0 hr 47 min 29 sec) 
Heartbeat CPU 0 instructions: 1040000003 cycles: 3387972243 heartbeat IPC: 0.27013 cumulative IPC: 0.280992 (Simulation time: 0 hr 47 min 58 sec) 
Heartbeat CPU 0 instructions: 1050000000 cycles: 3424476655 heartbeat IPC: 0.273939 cumulative IPC: 0.280916 (Simulation time: 0 hr 48 min 25 sec) 
Heartbeat CPU 0 instructions: 1060000002 cycles: 3459674974 heartbeat IPC: 0.284105 cumulative IPC: 0.280949 (Simulation time: 0 hr 48 min 54 sec) 
Heartbeat CPU 0 instructions: 1070000003 cycles: 3494918004 heartbeat IPC: 0.283744 cumulative IPC: 0.280977 (Simulation time: 0 hr 49 min 22 sec) 
Heartbeat CPU 0 instructions: 1080000001 cycles: 3528153760 heartbeat IPC: 0.300881 cumulative IPC: 0.281167 (Simulation time: 0 hr 49 min 49 sec) 
Heartbeat CPU 0 instructions: 1090000000 cycles: 3559655938 heartbeat IPC: 0.317438 cumulative IPC: 0.281492 (Simulation time: 0 hr 50 min 16 sec) 
Heartbeat CPU 0 instructions: 1100000000 cycles: 3591535516 heartbeat IPC: 0.31368 cumulative IPC: 0.281781 (Simulation time: 0 hr 50 min 43 sec) 
Finished CPU 0 instructions: 1000000002 cycles: 3548853877 cumulative IPC: 0.281781 (Simulation time: 0 hr 50 min 43 sec) 

ChampSim completed all CPUs

Region of Interest Statistics

CPU 0 cumulative IPC: 0.281781 instructions: 1000000002 cycles: 3548853877
L1D TOTAL     ACCESS:  336393270  HIT:  312277990  MISS:   24115280
L1D LOAD      ACCESS:  183509413  HIT:  162517331  MISS:   20992082
L1D RFO       ACCESS:  152883857  HIT:  149760659  MISS:    3123198
L1D PREFETCH  ACCESS:          0  HIT:          0  MISS:          0
L1D WRITEBACK ACCESS:          0  HIT:          0  MISS:          0
L1D PREFETCH  REQUESTED:          0  ISSUED:          0  USEFUL:          0  USELESS:          0
L1D AVERAGE MISS LATENCY: 157.712 cycles
L1I TOTAL     ACCESS:  186041837  HIT:  185996146  MISS:      45691
L1I LOAD      ACCESS:  186041837  HIT:  185996146  MISS:      45691
L1I RFO       ACCESS:          0  HIT:          0  MISS:          0
L1I PREFETCH  ACCESS:          0  HIT:          0  MISS:          0
L1I WRITEBACK ACCESS:          0  HIT:          0  MISS:          0
L1I PREFETCH  REQUESTED:          0  ISSUED:          0  USEFUL:          0  USELESS:          0
L1I AVERAGE MISS LATENCY: 164.314 cycles
L2C TOTAL     ACCESS:   34548819  HIT:   12710731  MISS:   21838088
L2C LOAD      ACCESS:   21037438  HIT:    2261819  MISS:   18775619
L2C RFO       ACCESS:    3123180  HIT:     126636  MISS:    2996544
L2C PREFETCH  ACCESS:          0  HIT:          0  MISS:          0
L2C WRITEBACK ACCESS:   10388201  HIT:   10322276  MISS:      65925
L2C PREFETCH  REQUESTED:          0  ISSUED:          0  USEFUL:          0  USELESS:          0
L2C AVERAGE MISS LATENCY: 155.13 cycles
LLC TOTAL     ACCESS:   31213628  HIT:    9308369  MISS:   21905259
LLC LOAD      ACCESS:   18775599  HIT:    4342196  MISS:   14433403
LLC RFO       ACCESS:    2996541  HIT:     873655  MISS:    2122886
LLC PREFETCH  ACCESS:          0  HIT:          0  MISS:          0
LLC WRITEBACK ACCESS:    9441488  HIT:    4092518  MISS:    5348970
LLC PREFETCH  REQUESTED:          0  ISSUED:          0  USEFUL:          0  USELESS:          0
LLC AVERAGE MISS LATENCY: 121.925 cycles
Major fault: 0 Minor fault: 36042
==============================
Perceptron RRIP Stats:
   Num Updates: 23880974
   Num Trains:  4067449
==============================
perceptron #0: 3 -11 1 1 -5 -3 -3 1 3 1 1 -1 -1 7 -1 3 1 3 1 -3 -3 -5 3 -69 

perceptron #1: 5 -5 -1 -3 -3 -1 -1 -5 -1 -1 -1 -3 7 -1 -1 -3 1 -1 -1 5 -3 -1 1 -73 

perceptron #2: 4 0 -2 4 -4 2 -8 -6 -6 -6 2 -6 2 -2 2 -6 2 -2 0 -2 -8 4 -2 -76 

perceptron #3: 8 0 10 6 -14 -10 -4 -12 -8 -12 12 -4 0 6 -4 8 4 -4 2 0 2 -10 6 -68 

perceptron #4: 0 -4 2 -2 2 0 -6 2 -2 -2 0 2 -2 4 0 0 4 4 6 4 -2 -2 6 -76 

perceptron #5: 7 -7 1 -3 -3 -1 -5 -7 3 3 5 -1 -5 -1 5 -3 1 5 -1 7 -5 -1 1 -83 

perceptron #6: -4 -2 4 -6 -4 -4 -2 -2 -4 2 0 -4 2 14 2 6 -2 8 -2 -2 2 6 4 -76 

perceptron #7: -2 -8 2 -4 -2 4 -6 2 0 -2 0 -4 2 0 -4 4 2 0 4 -2 8 -4 0 -70 


DRAM Statistics
 CHANNEL 0
 RQ ROW_BUFFER_HIT:    2356739  ROW_BUFFER_MISS:   14199507
 DBUS_CONGESTED:    4816938
 WQ ROW_BUFFER_HIT:    1115104  ROW_BUFFER_MISS:    4914454  FULL:          0

 AVG_CONGESTED_CYCLE: 6

CPU 0 Branch Prediction Accuracy: 94.1527% MPKI: 14.1178 Average ROB Occupancy at Mispredict: 44.4093

Branch types
NOT_BRANCH: 758557651 75.8558%
BRANCH_DIRECT_JUMP: 19502182 1.95022%
BRANCH_INDIRECT: 2970500 0.29705%
BRANCH_CONDITIONAL: 159215241 15.9215%
BRANCH_DIRECT_CALL: 25720589 2.57206%
BRANCH_INDIRECT_CALL: 4156438 0.415644%
BRANCH_RETURN: 29877023 2.9877%
BRANCH_OTHER: 0 0%

