
*** ChampSim Multicore Out-of-Order Simulator ***

Warmup Instructions: 100000000
Simulation Instructions: 1000000000
Number of CPUs: 1
LLC sets: 2048
LLC ways: 16
Off-chip DRAM Size: 4096 MB Channels: 1 Width: 64-bit Data Rate: 3200 MT/s

CPU 0 runs /scratch/user/kevin.weston/dpc3-traces/473.champsimtrace.xz
CPU 0 Bimodal branch predictor
Initialize RRPV
Initialize PRRIP state
Heartbeat CPU 0 instructions: 10000002 cycles: 3575336 heartbeat IPC: 2.79694 cumulative IPC: 2.79694 (Simulation time: 0 hr 0 min 24 sec) 
Heartbeat CPU 0 instructions: 20000002 cycles: 7111468 heartbeat IPC: 2.82795 cumulative IPC: 2.81236 (Simulation time: 0 hr 0 min 46 sec) 
Heartbeat CPU 0 instructions: 30000001 cycles: 10663067 heartbeat IPC: 2.81563 cumulative IPC: 2.81345 (Simulation time: 0 hr 1 min 10 sec) 
Heartbeat CPU 0 instructions: 40000001 cycles: 14229180 heartbeat IPC: 2.80417 cumulative IPC: 2.81112 (Simulation time: 0 hr 1 min 32 sec) 
Heartbeat CPU 0 instructions: 50000003 cycles: 17791185 heartbeat IPC: 2.80741 cumulative IPC: 2.81038 (Simulation time: 0 hr 1 min 55 sec) 
Heartbeat CPU 0 instructions: 60000000 cycles: 21338115 heartbeat IPC: 2.81934 cumulative IPC: 2.81187 (Simulation time: 0 hr 2 min 18 sec) 
Heartbeat CPU 0 instructions: 70000002 cycles: 24889873 heartbeat IPC: 2.81551 cumulative IPC: 2.81239 (Simulation time: 0 hr 2 min 41 sec) 
Heartbeat CPU 0 instructions: 80000001 cycles: 28449316 heartbeat IPC: 2.80943 cumulative IPC: 2.81202 (Simulation time: 0 hr 3 min 4 sec) 
Heartbeat CPU 0 instructions: 90000001 cycles: 32017516 heartbeat IPC: 2.80253 cumulative IPC: 2.81096 (Simulation time: 0 hr 3 min 27 sec) 
Heartbeat CPU 0 instructions: 100000001 cycles: 35561838 heartbeat IPC: 2.82141 cumulative IPC: 2.812 (Simulation time: 0 hr 3 min 50 sec) 

Warmup complete CPU 0 instructions: 100000001 cycles: 35561838 (Simulation time: 0 hr 3 min 50 sec) 

Heartbeat CPU 0 instructions: 110000000 cycles: 67762700 heartbeat IPC: 0.310551 cumulative IPC: 0.310551 (Simulation time: 0 hr 4 min 7 sec) 
Heartbeat CPU 0 instructions: 120000000 cycles: 111684147 heartbeat IPC: 0.227679 cumulative IPC: 0.262735 (Simulation time: 0 hr 4 min 25 sec) 
Heartbeat CPU 0 instructions: 130000001 cycles: 156911677 heartbeat IPC: 0.221104 cumulative IPC: 0.247219 (Simulation time: 0 hr 4 min 44 sec) 
Heartbeat CPU 0 instructions: 140000000 cycles: 188199157 heartbeat IPC: 0.319617 cumulative IPC: 0.262059 (Simulation time: 0 hr 5 min 1 sec) 
Heartbeat CPU 0 instructions: 150000001 cycles: 216323484 heartbeat IPC: 0.355564 cumulative IPC: 0.276607 (Simulation time: 0 hr 5 min 18 sec) 
Heartbeat CPU 0 instructions: 160000000 cycles: 245149898 heartbeat IPC: 0.346904 cumulative IPC: 0.286276 (Simulation time: 0 hr 5 min 35 sec) 
Heartbeat CPU 0 instructions: 170000000 cycles: 279842839 heartbeat IPC: 0.288243 cumulative IPC: 0.286555 (Simulation time: 0 hr 5 min 52 sec) 
Heartbeat CPU 0 instructions: 180000000 cycles: 319903889 heartbeat IPC: 0.249619 cumulative IPC: 0.281351 (Simulation time: 0 hr 6 min 10 sec) 
Heartbeat CPU 0 instructions: 190000000 cycles: 362903480 heartbeat IPC: 0.23256 cumulative IPC: 0.274942 (Simulation time: 0 hr 6 min 28 sec) 
Heartbeat CPU 0 instructions: 200000001 cycles: 404905438 heartbeat IPC: 0.238084 cumulative IPC: 0.270751 (Simulation time: 0 hr 6 min 45 sec) 
Heartbeat CPU 0 instructions: 210000002 cycles: 439670897 heartbeat IPC: 0.287642 cumulative IPC: 0.272204 (Simulation time: 0 hr 7 min 3 sec) 
Heartbeat CPU 0 instructions: 220000000 cycles: 468140370 heartbeat IPC: 0.351253 cumulative IPC: 0.277406 (Simulation time: 0 hr 7 min 20 sec) 
Heartbeat CPU 0 instructions: 230000001 cycles: 498299296 heartbeat IPC: 0.331577 cumulative IPC: 0.280937 (Simulation time: 0 hr 7 min 37 sec) 
Heartbeat CPU 0 instructions: 240000000 cycles: 526573642 heartbeat IPC: 0.353677 cumulative IPC: 0.285126 (Simulation time: 0 hr 7 min 54 sec) 
Heartbeat CPU 0 instructions: 250000003 cycles: 557391582 heartbeat IPC: 0.324486 cumulative IPC: 0.28745 (Simulation time: 0 hr 8 min 11 sec) 
Heartbeat CPU 0 instructions: 260000002 cycles: 600787054 heartbeat IPC: 0.230439 cumulative IPC: 0.283073 (Simulation time: 0 hr 8 min 28 sec) 
Heartbeat CPU 0 instructions: 270000000 cycles: 638552530 heartbeat IPC: 0.264792 cumulative IPC: 0.281928 (Simulation time: 0 hr 8 min 46 sec) 
Heartbeat CPU 0 instructions: 280000003 cycles: 669463072 heartbeat IPC: 0.323514 cumulative IPC: 0.283956 (Simulation time: 0 hr 9 min 3 sec) 
Heartbeat CPU 0 instructions: 290000001 cycles: 705463137 heartbeat IPC: 0.277777 cumulative IPC: 0.283624 (Simulation time: 0 hr 9 min 21 sec) 
Heartbeat CPU 0 instructions: 300000002 cycles: 741531143 heartbeat IPC: 0.277254 cumulative IPC: 0.283298 (Simulation time: 0 hr 9 min 38 sec) 
Heartbeat CPU 0 instructions: 310000003 cycles: 780028221 heartbeat IPC: 0.25976 cumulative IPC: 0.282081 (Simulation time: 0 hr 9 min 56 sec) 
Heartbeat CPU 0 instructions: 320000001 cycles: 815058124 heartbeat IPC: 0.28547 cumulative IPC: 0.282234 (Simulation time: 0 hr 10 min 13 sec) 
Heartbeat CPU 0 instructions: 330000000 cycles: 842912630 heartbeat IPC: 0.359008 cumulative IPC: 0.284882 (Simulation time: 0 hr 10 min 29 sec) 
Heartbeat CPU 0 instructions: 340000003 cycles: 878097350 heartbeat IPC: 0.284214 cumulative IPC: 0.284854 (Simulation time: 0 hr 10 min 47 sec) 
Heartbeat CPU 0 instructions: 350000001 cycles: 913497017 heartbeat IPC: 0.282488 cumulative IPC: 0.284759 (Simulation time: 0 hr 11 min 4 sec) 
Heartbeat CPU 0 instructions: 360000000 cycles: 955909172 heartbeat IPC: 0.235781 cumulative IPC: 0.282502 (Simulation time: 0 hr 11 min 21 sec) 
Heartbeat CPU 0 instructions: 370000000 cycles: 995345710 heartbeat IPC: 0.253572 cumulative IPC: 0.281313 (Simulation time: 0 hr 11 min 39 sec) 
Heartbeat CPU 0 instructions: 380000000 cycles: 1024830158 heartbeat IPC: 0.339162 cumulative IPC: 0.283037 (Simulation time: 0 hr 11 min 56 sec) 
Heartbeat CPU 0 instructions: 390000002 cycles: 1062982665 heartbeat IPC: 0.262106 cumulative IPC: 0.28226 (Simulation time: 0 hr 12 min 13 sec) 
Heartbeat CPU 0 instructions: 400000002 cycles: 1098395286 heartbeat IPC: 0.282385 cumulative IPC: 0.282264 (Simulation time: 0 hr 12 min 31 sec) 
Heartbeat CPU 0 instructions: 410000000 cycles: 1131675711 heartbeat IPC: 0.300477 cumulative IPC: 0.282817 (Simulation time: 0 hr 12 min 48 sec) 
Heartbeat CPU 0 instructions: 420000001 cycles: 1165108917 heartbeat IPC: 0.299104 cumulative IPC: 0.283299 (Simulation time: 0 hr 13 min 5 sec) 
Heartbeat CPU 0 instructions: 430000000 cycles: 1196753680 heartbeat IPC: 0.316008 cumulative IPC: 0.284191 (Simulation time: 0 hr 13 min 22 sec) 
Heartbeat CPU 0 instructions: 440000000 cycles: 1240399179 heartbeat IPC: 0.229119 cumulative IPC: 0.282196 (Simulation time: 0 hr 13 min 40 sec) 
Heartbeat CPU 0 instructions: 450000000 cycles: 1282522560 heartbeat IPC: 0.237398 cumulative IPC: 0.280682 (Simulation time: 0 hr 13 min 58 sec) 
Heartbeat CPU 0 instructions: 460000000 cycles: 1321862308 heartbeat IPC: 0.254196 cumulative IPC: 0.279872 (Simulation time: 0 hr 14 min 16 sec) 
Heartbeat CPU 0 instructions: 470000000 cycles: 1355779409 heartbeat IPC: 0.294837 cumulative IPC: 0.280257 (Simulation time: 0 hr 14 min 33 sec) 
Heartbeat CPU 0 instructions: 480000002 cycles: 1385708724 heartbeat IPC: 0.334121 cumulative IPC: 0.281451 (Simulation time: 0 hr 14 min 50 sec) 
Heartbeat CPU 0 instructions: 490000000 cycles: 1414078689 heartbeat IPC: 0.352485 cumulative IPC: 0.282913 (Simulation time: 0 hr 15 min 7 sec) 
Heartbeat CPU 0 instructions: 500000001 cycles: 1442833025 heartbeat IPC: 0.347774 cumulative IPC: 0.284238 (Simulation time: 0 hr 15 min 24 sec) 
Heartbeat CPU 0 instructions: 510000001 cycles: 1468335717 heartbeat IPC: 0.392115 cumulative IPC: 0.286158 (Simulation time: 0 hr 15 min 40 sec) 
Heartbeat CPU 0 instructions: 520000002 cycles: 1497502492 heartbeat IPC: 0.342856 cumulative IPC: 0.287289 (Simulation time: 0 hr 15 min 57 sec) 
Heartbeat CPU 0 instructions: 530000002 cycles: 1527762146 heartbeat IPC: 0.330473 cumulative IPC: 0.288165 (Simulation time: 0 hr 16 min 14 sec) 
Heartbeat CPU 0 instructions: 540000003 cycles: 1559182657 heartbeat IPC: 0.318263 cumulative IPC: 0.288786 (Simulation time: 0 hr 16 min 31 sec) 
Heartbeat CPU 0 instructions: 550000000 cycles: 1598166852 heartbeat IPC: 0.256514 cumulative IPC: 0.287981 (Simulation time: 0 hr 16 min 49 sec) 
Heartbeat CPU 0 instructions: 560000003 cycles: 1640682252 heartbeat IPC: 0.235209 cumulative IPC: 0.286583 (Simulation time: 0 hr 17 min 7 sec) 
Heartbeat CPU 0 instructions: 570000002 cycles: 1682143872 heartbeat IPC: 0.241187 cumulative IPC: 0.28544 (Simulation time: 0 hr 17 min 24 sec) 
Heartbeat CPU 0 instructions: 580000001 cycles: 1711392996 heartbeat IPC: 0.341891 cumulative IPC: 0.286425 (Simulation time: 0 hr 17 min 42 sec) 
Heartbeat CPU 0 instructions: 590000000 cycles: 1740018656 heartbeat IPC: 0.349337 cumulative IPC: 0.287482 (Simulation time: 0 hr 17 min 59 sec) 
Heartbeat CPU 0 instructions: 600000001 cycles: 1769807668 heartbeat IPC: 0.335694 cumulative IPC: 0.28831 (Simulation time: 0 hr 18 min 16 sec) 
Heartbeat CPU 0 instructions: 610000001 cycles: 1798244370 heartbeat IPC: 0.351658 cumulative IPC: 0.289332 (Simulation time: 0 hr 18 min 33 sec) 
Heartbeat CPU 0 instructions: 620000000 cycles: 1825343350 heartbeat IPC: 0.369018 cumulative IPC: 0.290538 (Simulation time: 0 hr 18 min 49 sec) 
Heartbeat CPU 0 instructions: 630000003 cycles: 1852558223 heartbeat IPC: 0.367446 cumulative IPC: 0.29169 (Simulation time: 0 hr 19 min 6 sec) 
Heartbeat CPU 0 instructions: 640000001 cycles: 1880843715 heartbeat IPC: 0.353538 cumulative IPC: 0.292638 (Simulation time: 0 hr 19 min 23 sec) 
Heartbeat CPU 0 instructions: 650000000 cycles: 1908465316 heartbeat IPC: 0.362035 cumulative IPC: 0.293662 (Simulation time: 0 hr 19 min 40 sec) 
Heartbeat CPU 0 instructions: 660000000 cycles: 1936993419 heartbeat IPC: 0.350532 cumulative IPC: 0.294515 (Simulation time: 0 hr 19 min 56 sec) 
Heartbeat CPU 0 instructions: 670000000 cycles: 1967514034 heartbeat IPC: 0.327647 cumulative IPC: 0.295038 (Simulation time: 0 hr 20 min 14 sec) 
Heartbeat CPU 0 instructions: 680000001 cycles: 1994981833 heartbeat IPC: 0.364063 cumulative IPC: 0.296006 (Simulation time: 0 hr 20 min 30 sec) 
Heartbeat CPU 0 instructions: 690000000 cycles: 2034775941 heartbeat IPC: 0.251293 cumulative IPC: 0.295116 (Simulation time: 0 hr 20 min 48 sec) 
Heartbeat CPU 0 instructions: 700000001 cycles: 2077793822 heartbeat IPC: 0.232461 cumulative IPC: 0.293796 (Simulation time: 0 hr 21 min 6 sec) 
Heartbeat CPU 0 instructions: 710000000 cycles: 2117894444 heartbeat IPC: 0.249373 cumulative IPC: 0.292941 (Simulation time: 0 hr 21 min 23 sec) 
Heartbeat CPU 0 instructions: 720000001 cycles: 2155432258 heartbeat IPC: 0.266398 cumulative IPC: 0.292471 (Simulation time: 0 hr 21 min 41 sec) 
Heartbeat CPU 0 instructions: 730000001 cycles: 2198624597 heartbeat IPC: 0.231523 cumulative IPC: 0.291254 (Simulation time: 0 hr 21 min 58 sec) 
Heartbeat CPU 0 instructions: 740000000 cycles: 2237787281 heartbeat IPC: 0.255345 cumulative IPC: 0.290615 (Simulation time: 0 hr 22 min 15 sec) 
Heartbeat CPU 0 instructions: 750000000 cycles: 2275181564 heartbeat IPC: 0.267421 cumulative IPC: 0.290228 (Simulation time: 0 hr 22 min 33 sec) 
Heartbeat CPU 0 instructions: 760000001 cycles: 2317326392 heartbeat IPC: 0.237277 cumulative IPC: 0.28925 (Simulation time: 0 hr 22 min 50 sec) 
Heartbeat CPU 0 instructions: 770000000 cycles: 2362872251 heartbeat IPC: 0.219559 cumulative IPC: 0.287886 (Simulation time: 0 hr 23 min 8 sec) 
Heartbeat CPU 0 instructions: 780000000 cycles: 2408544016 heartbeat IPC: 0.218954 cumulative IPC: 0.286559 (Simulation time: 0 hr 23 min 26 sec) 
Heartbeat CPU 0 instructions: 790000001 cycles: 2456066549 heartbeat IPC: 0.210427 cumulative IPC: 0.285065 (Simulation time: 0 hr 23 min 44 sec) 
Heartbeat CPU 0 instructions: 800000000 cycles: 2485667729 heartbeat IPC: 0.337824 cumulative IPC: 0.285702 (Simulation time: 0 hr 24 min 1 sec) 
Heartbeat CPU 0 instructions: 810000001 cycles: 2519008014 heartbeat IPC: 0.299937 cumulative IPC: 0.285893 (Simulation time: 0 hr 24 min 18 sec) 
Heartbeat CPU 0 instructions: 820000001 cycles: 2545535056 heartbeat IPC: 0.376974 cumulative IPC: 0.286856 (Simulation time: 0 hr 24 min 35 sec) 
Heartbeat CPU 0 instructions: 830000000 cycles: 2574739324 heartbeat IPC: 0.342416 cumulative IPC: 0.287495 (Simulation time: 0 hr 24 min 52 sec) 
Heartbeat CPU 0 instructions: 840000000 cycles: 2604382678 heartbeat IPC: 0.337344 cumulative IPC: 0.28807 (Simulation time: 0 hr 25 min 9 sec) 
Heartbeat CPU 0 instructions: 850000002 cycles: 2640723448 heartbeat IPC: 0.275173 cumulative IPC: 0.28789 (Simulation time: 0 hr 25 min 27 sec) 
Heartbeat CPU 0 instructions: 860000000 cycles: 2671388256 heartbeat IPC: 0.326107 cumulative IPC: 0.288335 (Simulation time: 0 hr 25 min 44 sec) 
Heartbeat CPU 0 instructions: 870000001 cycles: 2704714580 heartbeat IPC: 0.300063 cumulative IPC: 0.288481 (Simulation time: 0 hr 26 min 1 sec) 
Heartbeat CPU 0 instructions: 880000000 cycles: 2731902467 heartbeat IPC: 0.367811 cumulative IPC: 0.289281 (Simulation time: 0 hr 26 min 18 sec) 
Heartbeat CPU 0 instructions: 890000003 cycles: 2760121321 heartbeat IPC: 0.354373 cumulative IPC: 0.289955 (Simulation time: 0 hr 26 min 35 sec) 
Heartbeat CPU 0 instructions: 900000002 cycles: 2789137340 heartbeat IPC: 0.344637 cumulative IPC: 0.290531 (Simulation time: 0 hr 26 min 52 sec) 
Heartbeat CPU 0 instructions: 910000000 cycles: 2816296361 heartbeat IPC: 0.368202 cumulative IPC: 0.29129 (Simulation time: 0 hr 27 min 9 sec) 
Heartbeat CPU 0 instructions: 920000000 cycles: 2844010489 heartbeat IPC: 0.360827 cumulative IPC: 0.291976 (Simulation time: 0 hr 27 min 26 sec) 
Heartbeat CPU 0 instructions: 930000000 cycles: 2873371829 heartbeat IPC: 0.340584 cumulative IPC: 0.292479 (Simulation time: 0 hr 27 min 43 sec) 
Heartbeat CPU 0 instructions: 940000003 cycles: 2904479898 heartbeat IPC: 0.32146 cumulative IPC: 0.292793 (Simulation time: 0 hr 28 min 0 sec) 
Heartbeat CPU 0 instructions: 950000003 cycles: 2951524827 heartbeat IPC: 0.212563 cumulative IPC: 0.291499 (Simulation time: 0 hr 28 min 17 sec) 
Heartbeat CPU 0 instructions: 960000003 cycles: 2997941596 heartbeat IPC: 0.215439 cumulative IPC: 0.290307 (Simulation time: 0 hr 28 min 35 sec) 
Heartbeat CPU 0 instructions: 970000001 cycles: 3044477167 heartbeat IPC: 0.214889 cumulative IPC: 0.289141 (Simulation time: 0 hr 28 min 53 sec) 
Heartbeat CPU 0 instructions: 980000003 cycles: 3092074397 heartbeat IPC: 0.210096 cumulative IPC: 0.28791 (Simulation time: 0 hr 29 min 11 sec) 
Heartbeat CPU 0 instructions: 990000000 cycles: 3138332531 heartbeat IPC: 0.216178 cumulative IPC: 0.28684 (Simulation time: 0 hr 29 min 28 sec) 
Heartbeat CPU 0 instructions: 1000000000 cycles: 3183713110 heartbeat IPC: 0.220359 cumulative IPC: 0.285882 (Simulation time: 0 hr 29 min 46 sec) 
Heartbeat CPU 0 instructions: 1010000003 cycles: 3233040144 heartbeat IPC: 0.202729 cumulative IPC: 0.284599 (Simulation time: 0 hr 30 min 5 sec) 
Heartbeat CPU 0 instructions: 1020000000 cycles: 3268286002 heartbeat IPC: 0.283721 cumulative IPC: 0.28459 (Simulation time: 0 hr 30 min 22 sec) 
Heartbeat CPU 0 instructions: 1030000000 cycles: 3302351076 heartbeat IPC: 0.293556 cumulative IPC: 0.284683 (Simulation time: 0 hr 30 min 39 sec) 
Heartbeat CPU 0 instructions: 1040000000 cycles: 3343642867 heartbeat IPC: 0.242179 cumulative IPC: 0.284153 (Simulation time: 0 hr 30 min 57 sec) 
Heartbeat CPU 0 instructions: 1050000000 cycles: 3373208709 heartbeat IPC: 0.338228 cumulative IPC: 0.284632 (Simulation time: 0 hr 31 min 14 sec) 
Heartbeat CPU 0 instructions: 1060000003 cycles: 3399839977 heartbeat IPC: 0.375499 cumulative IPC: 0.285351 (Simulation time: 0 hr 31 min 31 sec) 
Heartbeat CPU 0 instructions: 1070000000 cycles: 3427701665 heartbeat IPC: 0.358916 cumulative IPC: 0.285955 (Simulation time: 0 hr 31 min 47 sec) 
Heartbeat CPU 0 instructions: 1080000000 cycles: 3460422028 heartbeat IPC: 0.30562 cumulative IPC: 0.286143 (Simulation time: 0 hr 32 min 4 sec) 
Heartbeat CPU 0 instructions: 1090000001 cycles: 3499712356 heartbeat IPC: 0.254516 cumulative IPC: 0.285784 (Simulation time: 0 hr 32 min 22 sec) 
Heartbeat CPU 0 instructions: 1100000000 cycles: 3539127314 heartbeat IPC: 0.253711 cumulative IPC: 0.285424 (Simulation time: 0 hr 32 min 40 sec) 
Finished CPU 0 instructions: 1000000000 cycles: 3503565484 cumulative IPC: 0.285424 (Simulation time: 0 hr 32 min 40 sec) 

ChampSim completed all CPUs

Region of Interest Statistics

CPU 0 cumulative IPC: 0.285424 instructions: 1000000000 cycles: 3503565484
L1D TOTAL     ACCESS:  254665618  HIT:  225885090  MISS:   28780528
L1D LOAD      ACCESS:  212209858  HIT:  183808534  MISS:   28401324
L1D RFO       ACCESS:   42455760  HIT:   42076556  MISS:     379204
L1D PREFETCH  ACCESS:          0  HIT:          0  MISS:          0
L1D WRITEBACK ACCESS:          0  HIT:          0  MISS:          0
L1D PREFETCH  REQUESTED:          0  ISSUED:          0  USEFUL:          0  USELESS:          0
L1D AVERAGE MISS LATENCY: 62.0352 cycles
L1I TOTAL     ACCESS:  197699233  HIT:  197699221  MISS:         12
L1I LOAD      ACCESS:  197699233  HIT:  197699221  MISS:         12
L1I RFO       ACCESS:          0  HIT:          0  MISS:          0
L1I PREFETCH  ACCESS:          0  HIT:          0  MISS:          0
L1I WRITEBACK ACCESS:          0  HIT:          0  MISS:          0
L1I PREFETCH  REQUESTED:          0  ISSUED:          0  USEFUL:          0  USELESS:          0
L1I AVERAGE MISS LATENCY: 198.5 cycles
L2C TOTAL     ACCESS:   38246192  HIT:   17199039  MISS:   21047153
L2C LOAD      ACCESS:   28400833  HIT:    7519497  MISS:   20881336
L2C RFO       ACCESS:     379195  HIT:     217130  MISS:     162065
L2C PREFETCH  ACCESS:          0  HIT:          0  MISS:          0
L2C WRITEBACK ACCESS:    9466164  HIT:    9462412  MISS:       3752
L2C PREFETCH  REQUESTED:          0  ISSUED:          0  USEFUL:          0  USELESS:          0
L2C AVERAGE MISS LATENCY: 59.4105 cycles
LLC TOTAL     ACCESS:   28121920  HIT:   23480211  MISS:    4641709
LLC LOAD      ACCESS:   20881056  HIT:   16899553  MISS:    3981503
LLC RFO       ACCESS:     162063  HIT:     159444  MISS:       2619
LLC PREFETCH  ACCESS:          0  HIT:          0  MISS:          0
LLC WRITEBACK ACCESS:    7078801  HIT:    6421214  MISS:     657587
LLC PREFETCH  REQUESTED:          0  ISSUED:          0  USEFUL:          0  USELESS:          0
LLC AVERAGE MISS LATENCY: 125.682 cycles
Major fault: 0 Minor fault: 6231
==============================
Perceptron RRIP Stats:
   Num Updates: 23035560
   Num Trains:  632449
==============================
perceptron #0: 3 5 11 3 -1 9 5 3 1 -1 -5 3 -5 

perceptron #1: 3 1 7 1 1 11 1 3 5 -1 3 -1 -15 

perceptron #2: 0 0 6 4 0 -2 0 -2 6 0 0 0 -12 

perceptron #3: -1 -3 3 -3 1 7 -1 -3 3 -3 -1 -1 -13 

perceptron #4: -5 -3 -5 -3 -3 -1 -3 3 -1 -1 1 1 -7 

perceptron #5: -3 -5 -1 -1 1 -3 -1 -3 3 3 -1 3 1 

perceptron #6: 1 -1 -1 1 5 -7 -3 -1 1 3 -1 -3 -3 

perceptron #7: -3 -3 1 -3 7 1 -3 1 -1 1 5 -1 5 

perceptron #8: -2 -4 -4 2 0 -10 -4 0 0 2 2 0 6 

perceptron #9: -4 -4 4 4 6 -2 0 0 0 0 2 0 0 

perceptron #10: -2 -4 0 2 8 0 2 -2 0 0 4 2 -2 

perceptron #11: -4 4 6 6 -2 -2 6 2 -2 0 -2 -2 0 

perceptron #12: 2 0 0 2 -2 2 -2 4 -2 -2 0 -2 4 

perceptron #13: -6 4 0 0 -2 2 0 -4 2 -2 0 2 6 

perceptron #14: 1 -1 3 -5 -1 3 1 -3 -1 3 -1 -1 3 

perceptron #15: 4 0 0 -2 0 6 0 -6 0 -2 -2 -2 -4 

perceptron #16: 2 2 0 0 -2 4 0 2 -2 2 -2 -2 4 

perceptron #17: -1 1 1 5 3 5 3 1 1 1 1 -1 3 

perceptron #18: 2 2 2 8 -2 0 0 0 4 0 -2 2 4 

perceptron #19: -1 1 -3 7 1 1 -5 7 1 1 -1 -1 1 

perceptron #20: 1 1 -3 3 1 -1 1 -1 -5 1 -1 -3 1 

perceptron #21: 1 -1 -5 3 -1 5 3 5 -1 1 1 1 -1 

perceptron #22: 4 -2 -2 0 -6 2 0 -2 0 0 2 2 2 

perceptron #23: -4 2 0 -6 -2 -4 0 -6 -4 -2 2 0 2 

perceptron #24: 2 -2 -4 -4 -2 4 2 -6 2 2 2 2 -6 

perceptron #25: -1 -1 -3 1 -3 -3 3 1 -3 -1 1 1 -1 

perceptron #26: -1 -3 1 -1 -1 1 1 1 1 -1 3 3 -5 

perceptron #27: 2 0 2 2 -2 -2 -4 -4 4 0 2 -2 -6 

perceptron #28: -2 -4 6 2 2 0 -6 0 2 -2 -2 0 -6 

perceptron #29: -3 -3 3 3 -1 -3 -5 3 -1 1 3 -1 -7 

perceptron #30: -4 -2 2 2 0 -4 -2 0 0 0 0 0 -8 

perceptron #31: -2 -6 0 2 -2 -6 2 2 2 0 2 2 -8 


DRAM Statistics
 CHANNEL 0
 RQ ROW_BUFFER_HIT:    1194847  ROW_BUFFER_MISS:    2789149
 DBUS_CONGESTED:      97341
 WQ ROW_BUFFER_HIT:      43864  ROW_BUFFER_MISS:    1404303  FULL:          0

 AVG_CONGESTED_CYCLE: 5

CPU 0 Branch Prediction Accuracy: 72.3402% MPKI: 52.2267 Average ROB Occupancy at Mispredict: 5.05301

Branch types
NOT_BRANCH: 811181313 81.1181%
BRANCH_DIRECT_JUMP: 63895 0.0063895%
BRANCH_INDIRECT: 0 0%
BRANCH_CONDITIONAL: 188708919 18.8709%
BRANCH_DIRECT_CALL: 22746 0.0022746%
BRANCH_INDIRECT_CALL: 0 0%
BRANCH_RETURN: 22746 0.0022746%
BRANCH_OTHER: 0 0%

