
*** ChampSim Multicore Out-of-Order Simulator ***

Warmup Instructions: 100000000
Simulation Instructions: 1000000000
Number of CPUs: 1
LLC sets: 2048
LLC ways: 16
Off-chip DRAM Size: 4096 MB Channels: 1 Width: 64-bit Data Rate: 3200 MT/s

CPU 0 runs /scratch/user/kevin.weston/dpc3-traces/473.champsimtrace.xz
CPU 0 Bimodal branch predictor
Initialize RRPV
Initialize PRRIP state
Heartbeat CPU 0 instructions: 10000002 cycles: 3575285 heartbeat IPC: 2.79698 cumulative IPC: 2.79698 (Simulation time: 0 hr 0 min 24 sec) 
Heartbeat CPU 0 instructions: 20000002 cycles: 7112174 heartbeat IPC: 2.82734 cumulative IPC: 2.81208 (Simulation time: 0 hr 0 min 48 sec) 
Heartbeat CPU 0 instructions: 30000001 cycles: 10665756 heartbeat IPC: 2.81406 cumulative IPC: 2.81274 (Simulation time: 0 hr 1 min 12 sec) 
Heartbeat CPU 0 instructions: 40000001 cycles: 14234294 heartbeat IPC: 2.80227 cumulative IPC: 2.81011 (Simulation time: 0 hr 1 min 36 sec) 
Heartbeat CPU 0 instructions: 50000003 cycles: 17798993 heartbeat IPC: 2.80529 cumulative IPC: 2.80915 (Simulation time: 0 hr 2 min 0 sec) 
Heartbeat CPU 0 instructions: 60000000 cycles: 21348199 heartbeat IPC: 2.81753 cumulative IPC: 2.81054 (Simulation time: 0 hr 2 min 24 sec) 
Heartbeat CPU 0 instructions: 70000002 cycles: 24903058 heartbeat IPC: 2.81305 cumulative IPC: 2.8109 (Simulation time: 0 hr 2 min 47 sec) 
Heartbeat CPU 0 instructions: 80000001 cycles: 28464624 heartbeat IPC: 2.80775 cumulative IPC: 2.81051 (Simulation time: 0 hr 3 min 11 sec) 
Heartbeat CPU 0 instructions: 90000001 cycles: 32037605 heartbeat IPC: 2.79878 cumulative IPC: 2.8092 (Simulation time: 0 hr 3 min 36 sec) 
Heartbeat CPU 0 instructions: 100000001 cycles: 35584914 heartbeat IPC: 2.81904 cumulative IPC: 2.81018 (Simulation time: 0 hr 4 min 0 sec) 

Warmup complete CPU 0 instructions: 100000001 cycles: 35584914 (Simulation time: 0 hr 4 min 0 sec) 

Heartbeat CPU 0 instructions: 110000000 cycles: 72928459 heartbeat IPC: 0.267784 cumulative IPC: 0.267784 (Simulation time: 0 hr 4 min 20 sec) 
Heartbeat CPU 0 instructions: 120000000 cycles: 121643752 heartbeat IPC: 0.205274 cumulative IPC: 0.232399 (Simulation time: 0 hr 4 min 40 sec) 
Heartbeat CPU 0 instructions: 130000001 cycles: 173965858 heartbeat IPC: 0.191124 cumulative IPC: 0.216793 (Simulation time: 0 hr 5 min 1 sec) 
Heartbeat CPU 0 instructions: 140000000 cycles: 208919677 heartbeat IPC: 0.286092 cumulative IPC: 0.230767 (Simulation time: 0 hr 5 min 20 sec) 
Heartbeat CPU 0 instructions: 150000001 cycles: 240474004 heartbeat IPC: 0.316914 cumulative IPC: 0.244034 (Simulation time: 0 hr 5 min 40 sec) 
Heartbeat CPU 0 instructions: 160000000 cycles: 273749657 heartbeat IPC: 0.30052 cumulative IPC: 0.251926 (Simulation time: 0 hr 5 min 59 sec) 
Heartbeat CPU 0 instructions: 170000000 cycles: 313049508 heartbeat IPC: 0.254454 cumulative IPC: 0.252284 (Simulation time: 0 hr 6 min 19 sec) 
Heartbeat CPU 0 instructions: 180000000 cycles: 358924031 heartbeat IPC: 0.217986 cumulative IPC: 0.247418 (Simulation time: 0 hr 6 min 40 sec) 
Heartbeat CPU 0 instructions: 190000000 cycles: 405965049 heartbeat IPC: 0.21258 cumulative IPC: 0.242994 (Simulation time: 0 hr 7 min 0 sec) 
Heartbeat CPU 0 instructions: 200000001 cycles: 454105750 heartbeat IPC: 0.207724 cumulative IPC: 0.238937 (Simulation time: 0 hr 7 min 21 sec) 
Heartbeat CPU 0 instructions: 210000002 cycles: 492911377 heartbeat IPC: 0.257695 cumulative IPC: 0.240528 (Simulation time: 0 hr 7 min 40 sec) 
Heartbeat CPU 0 instructions: 220000000 cycles: 524572098 heartbeat IPC: 0.315849 cumulative IPC: 0.245405 (Simulation time: 0 hr 7 min 59 sec) 
Heartbeat CPU 0 instructions: 230000001 cycles: 557671331 heartbeat IPC: 0.302122 cumulative IPC: 0.249001 (Simulation time: 0 hr 8 min 19 sec) 
Heartbeat CPU 0 instructions: 240000000 cycles: 590207444 heartbeat IPC: 0.307351 cumulative IPC: 0.252424 (Simulation time: 0 hr 8 min 38 sec) 
Heartbeat CPU 0 instructions: 250000003 cycles: 625097823 heartbeat IPC: 0.286612 cumulative IPC: 0.254447 (Simulation time: 0 hr 8 min 57 sec) 
Heartbeat CPU 0 instructions: 260000002 cycles: 674229129 heartbeat IPC: 0.203536 cumulative IPC: 0.250531 (Simulation time: 0 hr 9 min 18 sec) 
Heartbeat CPU 0 instructions: 270000000 cycles: 716152802 heartbeat IPC: 0.238529 cumulative IPC: 0.249791 (Simulation time: 0 hr 9 min 38 sec) 
Heartbeat CPU 0 instructions: 280000003 cycles: 749575582 heartbeat IPC: 0.299197 cumulative IPC: 0.252104 (Simulation time: 0 hr 9 min 57 sec) 
Heartbeat CPU 0 instructions: 290000001 cycles: 789766426 heartbeat IPC: 0.248813 cumulative IPC: 0.251929 (Simulation time: 0 hr 10 min 17 sec) 
Heartbeat CPU 0 instructions: 300000002 cycles: 830005763 heartbeat IPC: 0.248513 cumulative IPC: 0.251756 (Simulation time: 0 hr 10 min 37 sec) 
Heartbeat CPU 0 instructions: 310000003 cycles: 871645455 heartbeat IPC: 0.240156 cumulative IPC: 0.251178 (Simulation time: 0 hr 10 min 56 sec) 
Heartbeat CPU 0 instructions: 320000001 cycles: 909304727 heartbeat IPC: 0.265539 cumulative IPC: 0.251797 (Simulation time: 0 hr 11 min 15 sec) 
Heartbeat CPU 0 instructions: 330000000 cycles: 942950292 heartbeat IPC: 0.297216 cumulative IPC: 0.253481 (Simulation time: 0 hr 11 min 35 sec) 
Heartbeat CPU 0 instructions: 340000003 cycles: 984596041 heartbeat IPC: 0.240121 cumulative IPC: 0.252895 (Simulation time: 0 hr 11 min 55 sec) 
Heartbeat CPU 0 instructions: 350000001 cycles: 1025730702 heartbeat IPC: 0.243104 cumulative IPC: 0.252488 (Simulation time: 0 hr 12 min 15 sec) 
Heartbeat CPU 0 instructions: 360000000 cycles: 1073201049 heartbeat IPC: 0.210658 cumulative IPC: 0.250574 (Simulation time: 0 hr 12 min 35 sec) 
Heartbeat CPU 0 instructions: 370000000 cycles: 1117331190 heartbeat IPC: 0.226602 cumulative IPC: 0.249596 (Simulation time: 0 hr 12 min 55 sec) 
Heartbeat CPU 0 instructions: 380000000 cycles: 1150639069 heartbeat IPC: 0.300229 cumulative IPC: 0.251109 (Simulation time: 0 hr 13 min 14 sec) 
Heartbeat CPU 0 instructions: 390000002 cycles: 1193334076 heartbeat IPC: 0.234219 cumulative IPC: 0.250486 (Simulation time: 0 hr 13 min 34 sec) 
Heartbeat CPU 0 instructions: 400000002 cycles: 1234037020 heartbeat IPC: 0.245682 cumulative IPC: 0.250323 (Simulation time: 0 hr 13 min 54 sec) 
Heartbeat CPU 0 instructions: 410000000 cycles: 1273047154 heartbeat IPC: 0.256344 cumulative IPC: 0.250513 (Simulation time: 0 hr 14 min 14 sec) 
Heartbeat CPU 0 instructions: 420000001 cycles: 1311684740 heartbeat IPC: 0.258815 cumulative IPC: 0.250764 (Simulation time: 0 hr 14 min 34 sec) 
Heartbeat CPU 0 instructions: 430000000 cycles: 1348602459 heartbeat IPC: 0.270873 cumulative IPC: 0.251329 (Simulation time: 0 hr 14 min 54 sec) 
Heartbeat CPU 0 instructions: 440000000 cycles: 1394977051 heartbeat IPC: 0.215635 cumulative IPC: 0.250112 (Simulation time: 0 hr 15 min 14 sec) 
Heartbeat CPU 0 instructions: 450000000 cycles: 1441895428 heartbeat IPC: 0.213136 cumulative IPC: 0.248878 (Simulation time: 0 hr 15 min 34 sec) 
Heartbeat CPU 0 instructions: 460000000 cycles: 1484727231 heartbeat IPC: 0.233471 cumulative IPC: 0.248423 (Simulation time: 0 hr 15 min 54 sec) 
Heartbeat CPU 0 instructions: 470000000 cycles: 1521173441 heartbeat IPC: 0.274377 cumulative IPC: 0.24906 (Simulation time: 0 hr 16 min 14 sec) 
Heartbeat CPU 0 instructions: 480000002 cycles: 1553600300 heartbeat IPC: 0.308386 cumulative IPC: 0.250327 (Simulation time: 0 hr 16 min 33 sec) 
Heartbeat CPU 0 instructions: 490000000 cycles: 1585081294 heartbeat IPC: 0.317652 cumulative IPC: 0.251695 (Simulation time: 0 hr 16 min 52 sec) 
Heartbeat CPU 0 instructions: 500000001 cycles: 1616120115 heartbeat IPC: 0.322177 cumulative IPC: 0.253079 (Simulation time: 0 hr 17 min 11 sec) 
Heartbeat CPU 0 instructions: 510000001 cycles: 1644033615 heartbeat IPC: 0.35825 cumulative IPC: 0.254904 (Simulation time: 0 hr 17 min 29 sec) 
Heartbeat CPU 0 instructions: 520000002 cycles: 1675884020 heartbeat IPC: 0.313968 cumulative IPC: 0.256051 (Simulation time: 0 hr 17 min 48 sec) 
Heartbeat CPU 0 instructions: 530000002 cycles: 1709666815 heartbeat IPC: 0.296009 cumulative IPC: 0.256857 (Simulation time: 0 hr 18 min 7 sec) 
Heartbeat CPU 0 instructions: 540000003 cycles: 1744030810 heartbeat IPC: 0.291002 cumulative IPC: 0.257544 (Simulation time: 0 hr 18 min 26 sec) 
Heartbeat CPU 0 instructions: 550000000 cycles: 1787392944 heartbeat IPC: 0.230616 cumulative IPC: 0.256877 (Simulation time: 0 hr 18 min 47 sec) 
Heartbeat CPU 0 instructions: 560000003 cycles: 1832906789 heartbeat IPC: 0.219713 cumulative IPC: 0.255936 (Simulation time: 0 hr 19 min 7 sec) 
Heartbeat CPU 0 instructions: 570000002 cycles: 1878291951 heartbeat IPC: 0.220336 cumulative IPC: 0.25506 (Simulation time: 0 hr 19 min 27 sec) 
Heartbeat CPU 0 instructions: 580000001 cycles: 1910484850 heartbeat IPC: 0.310627 cumulative IPC: 0.256014 (Simulation time: 0 hr 19 min 46 sec) 
Heartbeat CPU 0 instructions: 590000000 cycles: 1942717464 heartbeat IPC: 0.310245 cumulative IPC: 0.25693 (Simulation time: 0 hr 20 min 6 sec) 
Heartbeat CPU 0 instructions: 600000001 cycles: 1975508663 heartbeat IPC: 0.30496 cumulative IPC: 0.257742 (Simulation time: 0 hr 20 min 25 sec) 
Heartbeat CPU 0 instructions: 610000001 cycles: 2007845557 heartbeat IPC: 0.309244 cumulative IPC: 0.258587 (Simulation time: 0 hr 20 min 44 sec) 
Heartbeat CPU 0 instructions: 620000000 cycles: 2038386584 heartbeat IPC: 0.327428 cumulative IPC: 0.259636 (Simulation time: 0 hr 21 min 3 sec) 
Heartbeat CPU 0 instructions: 630000003 cycles: 2069074638 heartbeat IPC: 0.32586 cumulative IPC: 0.260636 (Simulation time: 0 hr 21 min 21 sec) 
Heartbeat CPU 0 instructions: 640000001 cycles: 2100998623 heartbeat IPC: 0.313244 cumulative IPC: 0.261449 (Simulation time: 0 hr 21 min 40 sec) 
Heartbeat CPU 0 instructions: 650000000 cycles: 2131132479 heartbeat IPC: 0.331853 cumulative IPC: 0.262461 (Simulation time: 0 hr 21 min 59 sec) 
Heartbeat CPU 0 instructions: 660000000 cycles: 2162697299 heartbeat IPC: 0.316808 cumulative IPC: 0.263268 (Simulation time: 0 hr 22 min 18 sec) 
Heartbeat CPU 0 instructions: 670000000 cycles: 2196619424 heartbeat IPC: 0.294793 cumulative IPC: 0.263763 (Simulation time: 0 hr 22 min 37 sec) 
Heartbeat CPU 0 instructions: 680000001 cycles: 2227362267 heartbeat IPC: 0.325279 cumulative IPC: 0.264625 (Simulation time: 0 hr 22 min 56 sec) 
Heartbeat CPU 0 instructions: 690000000 cycles: 2271328798 heartbeat IPC: 0.227446 cumulative IPC: 0.263894 (Simulation time: 0 hr 23 min 16 sec) 
Heartbeat CPU 0 instructions: 700000001 cycles: 2318108635 heartbeat IPC: 0.213767 cumulative IPC: 0.262867 (Simulation time: 0 hr 23 min 36 sec) 
Heartbeat CPU 0 instructions: 710000000 cycles: 2362700893 heartbeat IPC: 0.224254 cumulative IPC: 0.262127 (Simulation time: 0 hr 23 min 55 sec) 
Heartbeat CPU 0 instructions: 720000001 cycles: 2404552716 heartbeat IPC: 0.238938 cumulative IPC: 0.261717 (Simulation time: 0 hr 24 min 15 sec) 
Heartbeat CPU 0 instructions: 730000001 cycles: 2452730685 heartbeat IPC: 0.207564 cumulative IPC: 0.260638 (Simulation time: 0 hr 24 min 36 sec) 
Heartbeat CPU 0 instructions: 740000000 cycles: 2495794873 heartbeat IPC: 0.232211 cumulative IPC: 0.26014 (Simulation time: 0 hr 24 min 55 sec) 
Heartbeat CPU 0 instructions: 750000000 cycles: 2536472956 heartbeat IPC: 0.245833 cumulative IPC: 0.259908 (Simulation time: 0 hr 25 min 14 sec) 
Heartbeat CPU 0 instructions: 760000001 cycles: 2582577443 heartbeat IPC: 0.216899 cumulative IPC: 0.259129 (Simulation time: 0 hr 25 min 34 sec) 
Heartbeat CPU 0 instructions: 770000000 cycles: 2632931349 heartbeat IPC: 0.198594 cumulative IPC: 0.257956 (Simulation time: 0 hr 25 min 54 sec) 
Heartbeat CPU 0 instructions: 780000000 cycles: 2682315019 heartbeat IPC: 0.202496 cumulative IPC: 0.256921 (Simulation time: 0 hr 26 min 15 sec) 
Heartbeat CPU 0 instructions: 790000001 cycles: 2732545973 heartbeat IPC: 0.19908 cumulative IPC: 0.255844 (Simulation time: 0 hr 26 min 35 sec) 
Heartbeat CPU 0 instructions: 800000000 cycles: 2765347400 heartbeat IPC: 0.304865 cumulative IPC: 0.256433 (Simulation time: 0 hr 26 min 54 sec) 
Heartbeat CPU 0 instructions: 810000001 cycles: 2801499792 heartbeat IPC: 0.276607 cumulative IPC: 0.256696 (Simulation time: 0 hr 27 min 13 sec) 
Heartbeat CPU 0 instructions: 820000001 cycles: 2830888967 heartbeat IPC: 0.340261 cumulative IPC: 0.257575 (Simulation time: 0 hr 27 min 32 sec) 
Heartbeat CPU 0 instructions: 830000000 cycles: 2863911527 heartbeat IPC: 0.302823 cumulative IPC: 0.258103 (Simulation time: 0 hr 27 min 51 sec) 
Heartbeat CPU 0 instructions: 840000000 cycles: 2896748541 heartbeat IPC: 0.304534 cumulative IPC: 0.258636 (Simulation time: 0 hr 28 min 10 sec) 
Heartbeat CPU 0 instructions: 850000002 cycles: 2937445226 heartbeat IPC: 0.24572 cumulative IPC: 0.258455 (Simulation time: 0 hr 28 min 30 sec) 
Heartbeat CPU 0 instructions: 860000000 cycles: 2972298888 heartbeat IPC: 0.286914 cumulative IPC: 0.258793 (Simulation time: 0 hr 28 min 50 sec) 
Heartbeat CPU 0 instructions: 870000001 cycles: 3010076551 heartbeat IPC: 0.264707 cumulative IPC: 0.258868 (Simulation time: 0 hr 29 min 9 sec) 
Heartbeat CPU 0 instructions: 880000000 cycles: 3040500587 heartbeat IPC: 0.328687 cumulative IPC: 0.259575 (Simulation time: 0 hr 29 min 28 sec) 
Heartbeat CPU 0 instructions: 890000003 cycles: 3073410892 heartbeat IPC: 0.303856 cumulative IPC: 0.260054 (Simulation time: 0 hr 29 min 47 sec) 
Heartbeat CPU 0 instructions: 900000002 cycles: 3108032464 heartbeat IPC: 0.288837 cumulative IPC: 0.260379 (Simulation time: 0 hr 30 min 7 sec) 
Heartbeat CPU 0 instructions: 910000000 cycles: 3138103561 heartbeat IPC: 0.332545 cumulative IPC: 0.261078 (Simulation time: 0 hr 30 min 25 sec) 
Heartbeat CPU 0 instructions: 920000000 cycles: 3168965353 heartbeat IPC: 0.324025 cumulative IPC: 0.261698 (Simulation time: 0 hr 30 min 43 sec) 
Heartbeat CPU 0 instructions: 930000000 cycles: 3202090326 heartbeat IPC: 0.301887 cumulative IPC: 0.262119 (Simulation time: 0 hr 31 min 2 sec) 
Heartbeat CPU 0 instructions: 940000003 cycles: 3236675260 heartbeat IPC: 0.289143 cumulative IPC: 0.262411 (Simulation time: 0 hr 31 min 21 sec) 
Heartbeat CPU 0 instructions: 950000003 cycles: 3286663749 heartbeat IPC: 0.200046 cumulative IPC: 0.261452 (Simulation time: 0 hr 31 min 41 sec) 
Heartbeat CPU 0 instructions: 960000003 cycles: 3337180307 heartbeat IPC: 0.197955 cumulative IPC: 0.26048 (Simulation time: 0 hr 32 min 1 sec) 
Heartbeat CPU 0 instructions: 970000001 cycles: 3388203099 heartbeat IPC: 0.195991 cumulative IPC: 0.259499 (Simulation time: 0 hr 32 min 21 sec) 
Heartbeat CPU 0 instructions: 980000003 cycles: 3439922020 heartbeat IPC: 0.193353 cumulative IPC: 0.258494 (Simulation time: 0 hr 32 min 42 sec) 
Heartbeat CPU 0 instructions: 990000000 cycles: 3490495020 heartbeat IPC: 0.197734 cumulative IPC: 0.257604 (Simulation time: 0 hr 33 min 2 sec) 
Heartbeat CPU 0 instructions: 1000000000 cycles: 3539305879 heartbeat IPC: 0.204872 cumulative IPC: 0.25687 (Simulation time: 0 hr 33 min 22 sec) 
Heartbeat CPU 0 instructions: 1010000003 cycles: 3591812174 heartbeat IPC: 0.190453 cumulative IPC: 0.255889 (Simulation time: 0 hr 33 min 42 sec) 
Heartbeat CPU 0 instructions: 1020000000 cycles: 3630364856 heartbeat IPC: 0.259385 cumulative IPC: 0.255927 (Simulation time: 0 hr 34 min 2 sec) 
Heartbeat CPU 0 instructions: 1030000000 cycles: 3667443534 heartbeat IPC: 0.269697 cumulative IPC: 0.256067 (Simulation time: 0 hr 34 min 21 sec) 
Heartbeat CPU 0 instructions: 1040000000 cycles: 3712750625 heartbeat IPC: 0.220716 cumulative IPC: 0.255632 (Simulation time: 0 hr 34 min 41 sec) 
Heartbeat CPU 0 instructions: 1050000000 cycles: 3746272050 heartbeat IPC: 0.298317 cumulative IPC: 0.256017 (Simulation time: 0 hr 35 min 0 sec) 
Heartbeat CPU 0 instructions: 1060000003 cycles: 3774688831 heartbeat IPC: 0.351905 cumulative IPC: 0.256746 (Simulation time: 0 hr 35 min 18 sec) 
Heartbeat CPU 0 instructions: 1070000000 cycles: 3805212116 heartbeat IPC: 0.327619 cumulative IPC: 0.25732 (Simulation time: 0 hr 35 min 36 sec) 
Heartbeat CPU 0 instructions: 1080000000 cycles: 3842142154 heartbeat IPC: 0.270782 cumulative IPC: 0.25745 (Simulation time: 0 hr 35 min 55 sec) 
Heartbeat CPU 0 instructions: 1090000001 cycles: 3885591719 heartbeat IPC: 0.230152 cumulative IPC: 0.257142 (Simulation time: 0 hr 36 min 15 sec) 
Heartbeat CPU 0 instructions: 1100000000 cycles: 3928875754 heartbeat IPC: 0.231032 cumulative IPC: 0.256852 (Simulation time: 0 hr 36 min 35 sec) 
Finished CPU 0 instructions: 1000000000 cycles: 3893290848 cumulative IPC: 0.256852 (Simulation time: 0 hr 36 min 35 sec) 

ChampSim completed all CPUs

Region of Interest Statistics

CPU 0 cumulative IPC: 0.256852 instructions: 1000000000 cycles: 3893290848
L1D TOTAL     ACCESS:  254700045  HIT:  225919525  MISS:   28780520
L1D LOAD      ACCESS:  212242599  HIT:  183841283  MISS:   28401316
L1D RFO       ACCESS:   42457446  HIT:   42078242  MISS:     379204
L1D PREFETCH  ACCESS:          0  HIT:          0  MISS:          0
L1D WRITEBACK ACCESS:          0  HIT:          0  MISS:          0
L1D PREFETCH  REQUESTED:          0  ISSUED:          0  USEFUL:          0  USELESS:          0
L1D AVERAGE MISS LATENCY: 77.5694 cycles
L1I TOTAL     ACCESS:  197701622  HIT:  197701610  MISS:         12
L1I LOAD      ACCESS:  197701622  HIT:  197701610  MISS:         12
L1I RFO       ACCESS:          0  HIT:          0  MISS:          0
L1I PREFETCH  ACCESS:          0  HIT:          0  MISS:          0
L1I WRITEBACK ACCESS:          0  HIT:          0  MISS:          0
L1I PREFETCH  REQUESTED:          0  ISSUED:          0  USEFUL:          0  USELESS:          0
L1I AVERAGE MISS LATENCY: 198.5 cycles
L2C TOTAL     ACCESS:   38246188  HIT:   17199165  MISS:   21047023
L2C LOAD      ACCESS:   28400828  HIT:    7519623  MISS:   20881205
L2C RFO       ACCESS:     379196  HIT:     217130  MISS:     162066
L2C PREFETCH  ACCESS:          0  HIT:          0  MISS:          0
L2C WRITEBACK ACCESS:    9466164  HIT:    9462412  MISS:       3752
L2C PREFETCH  REQUESTED:          0  ISSUED:          0  USEFUL:          0  USELESS:          0
L2C AVERAGE MISS LATENCY: 80.6765 cycles
LLC TOTAL     ACCESS:   28121799  HIT:   19796825  MISS:    8324974
LLC LOAD      ACCESS:   20880933  HIT:   13218463  MISS:    7662470
LLC RFO       ACCESS:     162064  HIT:     159576  MISS:       2488
LLC PREFETCH  ACCESS:          0  HIT:          0  MISS:          0
LLC WRITEBACK ACCESS:    7078802  HIT:    6418786  MISS:     660016
LLC PREFETCH  REQUESTED:          0  ISSUED:          0  USEFUL:          0  USELESS:          0
LLC AVERAGE MISS LATENCY: 124.488 cycles
Major fault: 0 Minor fault: 6231
==============================
Perceptron RRIP Stats:
   Num Updates: 23035344
   Num Trains:  1207602
==============================
perceptron #0: 24 2 -18 -8 -12 66 0 -4 30 34 20 4 8 8 -2 -12 2 0 2 -2 46 -22 

perceptron #1: 31 -1 1 -3 -23 41 25 -17 47 15 17 41 -3 29 -9 -7 -1 -3 -3 -7 -15 -65 

perceptron #2: 3 5 15 -35 -15 25 -13 13 17 17 13 23 -9 -9 9 1 15 -1 11 17 23 -89 

perceptron #3: 1 19 -17 -9 -37 9 -11 21 23 -21 9 11 -13 3 -9 -5 3 -5 1 11 41 -47 

perceptron #4: -3 -13 -1 1 -1 -9 -33 11 21 -31 19 17 -9 1 -5 -5 3 11 -3 19 57 -67 

perceptron #5: -16 -24 -16 -2 -2 -28 -20 0 4 -28 -2 10 4 10 6 -4 4 -2 4 22 30 -64 

perceptron #6: -6 44 -6 28 44 22 30 26 -10 -24 -2 -44 18 6 -12 -8 -2 -8 -6 -6 34 8 

perceptron #7: -28 -18 38 -22 36 30 2 24 22 -34 -2 -34 18 -4 12 2 8 0 -6 -2 -46 38 

perceptron #8: -40 -26 26 22 2 6 -30 10 0 -48 -6 0 2 -20 -4 0 22 -8 2 52 14 12 

perceptron #9: -8 -20 -36 -24 0 26 4 24 4 12 -8 -14 -6 8 -4 -10 4 4 8 36 -52 -12 

perceptron #10: -13 5 7 -17 -19 39 25 59 -17 19 -29 -1 -5 11 -15 -1 3 3 11 23 9 23 

perceptron #11: -5 -3 -21 -5 23 25 31 -5 21 35 5 3 13 1 7 9 -1 -5 -1 5 -13 13 

perceptron #12: 2 12 4 -18 30 32 28 -34 20 20 -2 10 -2 2 -14 12 12 2 8 0 -10 26 

perceptron #13: 10 2 20 -18 22 22 8 -56 50 16 -22 -22 14 -2 12 16 4 4 2 -2 -36 52 

perceptron #14: 17 3 41 1 23 29 -7 -15 -3 33 -25 -19 29 5 5 11 7 -1 3 -33 -15 27 

perceptron #15: 17 13 15 -5 15 9 25 -17 5 45 -41 -1 9 -9 -5 -5 -1 -7 19 23 -27 37 

perceptron #16: 40 40 26 16 18 -32 6 34 -12 24 -14 -10 -14 12 4 2 -2 8 2 -2 -34 0 

perceptron #17: 14 -34 0 8 44 -26 42 -8 14 14 -10 -16 -16 -2 -2 4 2 -14 -2 -6 -16 26 

perceptron #18: -6 -20 -4 6 12 -38 32 -18 30 -2 6 6 12 4 4 -8 0 -18 8 -36 -50 14 

perceptron #19: -20 -46 -20 16 -30 -46 46 4 30 -10 -6 10 12 16 -6 16 -12 12 10 -26 -38 16 

perceptron #20: -13 -21 -9 -1 -27 -29 -1 -1 -3 21 -9 17 -3 15 -1 -3 -15 13 33 -25 -25 -41 

perceptron #21: -25 -27 -31 -7 3 -51 7 15 29 29 17 17 -3 -1 3 15 1 -21 -3 23 -11 -49 

perceptron #22: -42 -28 -18 20 -14 -50 -6 -6 24 -2 0 6 -4 -2 4 -4 -2 0 8 18 -36 -36 

perceptron #23: -11 -9 -15 -45 39 -13 -21 31 5 -1 29 -17 -5 -11 -1 1 7 -5 3 9 -17 -45 

perceptron #24: 19 -35 -7 -27 -17 7 -43 17 1 -5 17 27 -3 -5 1 -7 -3 -1 1 1 -5 -75 

perceptron #25: 14 -20 -14 2 28 32 20 24 -16 -6 -16 12 20 -6 -6 0 -4 -2 -4 12 4 -54 

perceptron #26: 2 -40 -18 0 -10 -8 14 12 -2 4 -6 36 12 -16 4 8 -4 -6 4 40 -46 -40 

perceptron #27: -27 -39 -13 1 -15 -11 25 13 9 -9 -29 17 23 -5 -19 -5 -3 -19 -5 47 -27 -71 

perceptron #28: -7 -7 9 -25 -39 -9 9 19 -11 -9 7 35 3 1 1 3 5 -5 -11 5 -31 -67 

perceptron #29: 2 -12 -26 -2 -30 6 -6 28 -14 -10 12 -4 14 -2 -10 -2 -8 -6 0 -16 20 -44 

perceptron #30: -18 -14 -20 -10 -22 16 -8 26 -24 -12 24 0 6 4 -2 4 0 -8 -6 -16 38 -48 

perceptron #31: -6 -36 -4 -22 -12 42 14 -12 0 6 -12 26 16 14 6 2 -2 -14 6 -10 62 -46 


DRAM Statistics
 CHANNEL 0
 RQ ROW_BUFFER_HIT:    3195388  ROW_BUFFER_MISS:    4469439
 DBUS_CONGESTED:     165229
 WQ ROW_BUFFER_HIT:      78889  ROW_BUFFER_MISS:    1380797  FULL:          0

 AVG_CONGESTED_CYCLE: 5

CPU 0 Branch Prediction Accuracy: 72.3402% MPKI: 52.2267 Average ROB Occupancy at Mispredict: 5.07623

Branch types
NOT_BRANCH: 811181313 81.1181%
BRANCH_DIRECT_JUMP: 63895 0.0063895%
BRANCH_INDIRECT: 0 0%
BRANCH_CONDITIONAL: 188708919 18.8709%
BRANCH_DIRECT_CALL: 22746 0.0022746%
BRANCH_INDIRECT_CALL: 0 0%
BRANCH_RETURN: 22746 0.0022746%
BRANCH_OTHER: 0 0%

