
*** ChampSim Multicore Out-of-Order Simulator ***

Warmup Instructions: 100000000
Simulation Instructions: 1000000000
Number of CPUs: 1
LLC sets: 2048
LLC ways: 16
Off-chip DRAM Size: 4096 MB Channels: 1 Width: 64-bit Data Rate: 3200 MT/s

CPU 0 runs /scratch/user/kevin.weston/dpc3-traces/473.champsimtrace.xz
CPU 0 Bimodal branch predictor
Heartbeat CPU 0 instructions: 10000002 cycles: 3575256 heartbeat IPC: 2.797 cumulative IPC: 2.797 (Simulation time: 0 hr 0 min 24 sec) 
Heartbeat CPU 0 instructions: 20000002 cycles: 7110909 heartbeat IPC: 2.82833 cumulative IPC: 2.81258 (Simulation time: 0 hr 0 min 48 sec) 
Heartbeat CPU 0 instructions: 30000001 cycles: 10661521 heartbeat IPC: 2.81642 cumulative IPC: 2.81386 (Simulation time: 0 hr 1 min 12 sec) 
Heartbeat CPU 0 instructions: 40000001 cycles: 14225823 heartbeat IPC: 2.8056 cumulative IPC: 2.81179 (Simulation time: 0 hr 1 min 36 sec) 
Heartbeat CPU 0 instructions: 50000003 cycles: 17786067 heartbeat IPC: 2.8088 cumulative IPC: 2.81119 (Simulation time: 0 hr 2 min 0 sec) 
Heartbeat CPU 0 instructions: 60000000 cycles: 21332271 heartbeat IPC: 2.81992 cumulative IPC: 2.81264 (Simulation time: 0 hr 2 min 24 sec) 
Heartbeat CPU 0 instructions: 70000002 cycles: 24882822 heartbeat IPC: 2.81646 cumulative IPC: 2.81319 (Simulation time: 0 hr 2 min 48 sec) 
Heartbeat CPU 0 instructions: 80000001 cycles: 28441089 heartbeat IPC: 2.81036 cumulative IPC: 2.81283 (Simulation time: 0 hr 3 min 12 sec) 
Heartbeat CPU 0 instructions: 90000001 cycles: 32008348 heartbeat IPC: 2.80327 cumulative IPC: 2.81177 (Simulation time: 0 hr 3 min 36 sec) 
Heartbeat CPU 0 instructions: 100000001 cycles: 35550956 heartbeat IPC: 2.82278 cumulative IPC: 2.81286 (Simulation time: 0 hr 4 min 0 sec) 

Warmup complete CPU 0 instructions: 100000001 cycles: 35550956 (Simulation time: 0 hr 4 min 0 sec) 

Heartbeat CPU 0 instructions: 110000000 cycles: 65492455 heartbeat IPC: 0.333985 cumulative IPC: 0.333985 (Simulation time: 0 hr 4 min 18 sec) 
Heartbeat CPU 0 instructions: 120000000 cycles: 107586499 heartbeat IPC: 0.237563 cumulative IPC: 0.277641 (Simulation time: 0 hr 4 min 35 sec) 
Heartbeat CPU 0 instructions: 130000001 cycles: 151209658 heartbeat IPC: 0.229236 cumulative IPC: 0.259384 (Simulation time: 0 hr 4 min 54 sec) 
Heartbeat CPU 0 instructions: 140000000 cycles: 181170328 heartbeat IPC: 0.333771 cumulative IPC: 0.274689 (Simulation time: 0 hr 5 min 11 sec) 
Heartbeat CPU 0 instructions: 150000001 cycles: 208011121 heartbeat IPC: 0.372567 cumulative IPC: 0.289922 (Simulation time: 0 hr 5 min 28 sec) 
Heartbeat CPU 0 instructions: 160000000 cycles: 235309477 heartbeat IPC: 0.366322 cumulative IPC: 0.300363 (Simulation time: 0 hr 5 min 45 sec) 
Heartbeat CPU 0 instructions: 170000000 cycles: 268451833 heartbeat IPC: 0.301729 cumulative IPC: 0.300557 (Simulation time: 0 hr 6 min 2 sec) 
Heartbeat CPU 0 instructions: 180000000 cycles: 306773758 heartbeat IPC: 0.260947 cumulative IPC: 0.29496 (Simulation time: 0 hr 6 min 20 sec) 
Heartbeat CPU 0 instructions: 190000000 cycles: 347834635 heartbeat IPC: 0.243541 cumulative IPC: 0.288199 (Simulation time: 0 hr 6 min 38 sec) 
Heartbeat CPU 0 instructions: 200000001 cycles: 388121361 heartbeat IPC: 0.248221 cumulative IPC: 0.283631 (Simulation time: 0 hr 6 min 56 sec) 
Heartbeat CPU 0 instructions: 210000002 cycles: 421450310 heartbeat IPC: 0.300039 cumulative IPC: 0.285048 (Simulation time: 0 hr 7 min 13 sec) 
Heartbeat CPU 0 instructions: 220000000 cycles: 447986725 heartbeat IPC: 0.376841 cumulative IPC: 0.290954 (Simulation time: 0 hr 7 min 30 sec) 
Heartbeat CPU 0 instructions: 230000001 cycles: 475782887 heartbeat IPC: 0.359762 cumulative IPC: 0.295299 (Simulation time: 0 hr 7 min 47 sec) 
Heartbeat CPU 0 instructions: 240000000 cycles: 501990525 heartbeat IPC: 0.381568 cumulative IPC: 0.300146 (Simulation time: 0 hr 8 min 4 sec) 
Heartbeat CPU 0 instructions: 250000003 cycles: 531408899 heartbeat IPC: 0.339924 cumulative IPC: 0.302506 (Simulation time: 0 hr 8 min 21 sec) 
Heartbeat CPU 0 instructions: 260000002 cycles: 573169847 heartbeat IPC: 0.239458 cumulative IPC: 0.297609 (Simulation time: 0 hr 8 min 39 sec) 
Heartbeat CPU 0 instructions: 270000000 cycles: 609282929 heartbeat IPC: 0.276908 cumulative IPC: 0.296306 (Simulation time: 0 hr 8 min 56 sec) 
Heartbeat CPU 0 instructions: 280000003 cycles: 635810509 heartbeat IPC: 0.376966 cumulative IPC: 0.29987 (Simulation time: 0 hr 9 min 13 sec) 
Heartbeat CPU 0 instructions: 290000001 cycles: 668631861 heartbeat IPC: 0.30468 cumulative IPC: 0.30012 (Simulation time: 0 hr 9 min 31 sec) 
Heartbeat CPU 0 instructions: 300000002 cycles: 703089197 heartbeat IPC: 0.290214 cumulative IPC: 0.299608 (Simulation time: 0 hr 9 min 48 sec) 
Heartbeat CPU 0 instructions: 310000003 cycles: 740180929 heartbeat IPC: 0.269602 cumulative IPC: 0.298029 (Simulation time: 0 hr 10 min 6 sec) 
Heartbeat CPU 0 instructions: 320000001 cycles: 773177093 heartbeat IPC: 0.303065 cumulative IPC: 0.298254 (Simulation time: 0 hr 10 min 22 sec) 
Heartbeat CPU 0 instructions: 330000000 cycles: 799965759 heartbeat IPC: 0.373292 cumulative IPC: 0.300884 (Simulation time: 0 hr 10 min 39 sec) 
Heartbeat CPU 0 instructions: 340000003 cycles: 833710856 heartbeat IPC: 0.296339 cumulative IPC: 0.300692 (Simulation time: 0 hr 10 min 57 sec) 
Heartbeat CPU 0 instructions: 350000001 cycles: 868072620 heartbeat IPC: 0.291021 cumulative IPC: 0.300292 (Simulation time: 0 hr 11 min 14 sec) 
Heartbeat CPU 0 instructions: 360000000 cycles: 908796743 heartbeat IPC: 0.245555 cumulative IPC: 0.29774 (Simulation time: 0 hr 11 min 32 sec) 
Heartbeat CPU 0 instructions: 370000000 cycles: 946624062 heartbeat IPC: 0.264359 cumulative IPC: 0.296354 (Simulation time: 0 hr 11 min 49 sec) 
Heartbeat CPU 0 instructions: 380000000 cycles: 974196645 heartbeat IPC: 0.362679 cumulative IPC: 0.298302 (Simulation time: 0 hr 12 min 6 sec) 
Heartbeat CPU 0 instructions: 390000002 cycles: 1009332035 heartbeat IPC: 0.284613 cumulative IPC: 0.297808 (Simulation time: 0 hr 12 min 23 sec) 
Heartbeat CPU 0 instructions: 400000002 cycles: 1043162735 heartbeat IPC: 0.29559 cumulative IPC: 0.297734 (Simulation time: 0 hr 12 min 41 sec) 
Heartbeat CPU 0 instructions: 410000000 cycles: 1074237484 heartbeat IPC: 0.321805 cumulative IPC: 0.298454 (Simulation time: 0 hr 12 min 58 sec) 
Heartbeat CPU 0 instructions: 420000001 cycles: 1106156055 heartbeat IPC: 0.313297 cumulative IPC: 0.298896 (Simulation time: 0 hr 13 min 15 sec) 
Heartbeat CPU 0 instructions: 430000000 cycles: 1135831991 heartbeat IPC: 0.336973 cumulative IPC: 0.299923 (Simulation time: 0 hr 13 min 32 sec) 
Heartbeat CPU 0 instructions: 440000000 cycles: 1176660491 heartbeat IPC: 0.244927 cumulative IPC: 0.297956 (Simulation time: 0 hr 13 min 50 sec) 
Heartbeat CPU 0 instructions: 450000000 cycles: 1216326739 heartbeat IPC: 0.252104 cumulative IPC: 0.296415 (Simulation time: 0 hr 14 min 8 sec) 
Heartbeat CPU 0 instructions: 460000000 cycles: 1252098373 heartbeat IPC: 0.279551 cumulative IPC: 0.295919 (Simulation time: 0 hr 14 min 25 sec) 
Heartbeat CPU 0 instructions: 470000000 cycles: 1284376002 heartbeat IPC: 0.309812 cumulative IPC: 0.296278 (Simulation time: 0 hr 14 min 43 sec) 
Heartbeat CPU 0 instructions: 480000002 cycles: 1312551477 heartbeat IPC: 0.354919 cumulative IPC: 0.297572 (Simulation time: 0 hr 15 min 0 sec) 
Heartbeat CPU 0 instructions: 490000000 cycles: 1339338295 heartbeat IPC: 0.373318 cumulative IPC: 0.299129 (Simulation time: 0 hr 15 min 17 sec) 
Heartbeat CPU 0 instructions: 500000001 cycles: 1365798851 heartbeat IPC: 0.377921 cumulative IPC: 0.300696 (Simulation time: 0 hr 15 min 33 sec) 
Heartbeat CPU 0 instructions: 510000001 cycles: 1390631857 heartbeat IPC: 0.40269 cumulative IPC: 0.302565 (Simulation time: 0 hr 15 min 50 sec) 
Heartbeat CPU 0 instructions: 520000002 cycles: 1417515765 heartbeat IPC: 0.37197 cumulative IPC: 0.303915 (Simulation time: 0 hr 16 min 6 sec) 
Heartbeat CPU 0 instructions: 530000002 cycles: 1446423971 heartbeat IPC: 0.345923 cumulative IPC: 0.304776 (Simulation time: 0 hr 16 min 24 sec) 
Heartbeat CPU 0 instructions: 540000003 cycles: 1475767427 heartbeat IPC: 0.340792 cumulative IPC: 0.30551 (Simulation time: 0 hr 16 min 41 sec) 
Heartbeat CPU 0 instructions: 550000000 cycles: 1513612491 heartbeat IPC: 0.264235 cumulative IPC: 0.304453 (Simulation time: 0 hr 16 min 58 sec) 
Heartbeat CPU 0 instructions: 560000003 cycles: 1554809358 heartbeat IPC: 0.242737 cumulative IPC: 0.302779 (Simulation time: 0 hr 17 min 16 sec) 
Heartbeat CPU 0 instructions: 570000002 cycles: 1594584565 heartbeat IPC: 0.251413 cumulative IPC: 0.301469 (Simulation time: 0 hr 17 min 34 sec) 
Heartbeat CPU 0 instructions: 580000001 cycles: 1621873515 heartbeat IPC: 0.366449 cumulative IPC: 0.302587 (Simulation time: 0 hr 17 min 51 sec) 
Heartbeat CPU 0 instructions: 590000000 cycles: 1648749617 heartbeat IPC: 0.372078 cumulative IPC: 0.303744 (Simulation time: 0 hr 18 min 8 sec) 
Heartbeat CPU 0 instructions: 600000001 cycles: 1676945179 heartbeat IPC: 0.354666 cumulative IPC: 0.304619 (Simulation time: 0 hr 18 min 25 sec) 
Heartbeat CPU 0 instructions: 610000001 cycles: 1703541241 heartbeat IPC: 0.375996 cumulative IPC: 0.305757 (Simulation time: 0 hr 18 min 42 sec) 
Heartbeat CPU 0 instructions: 620000000 cycles: 1729039206 heartbeat IPC: 0.392188 cumulative IPC: 0.307059 (Simulation time: 0 hr 18 min 59 sec) 
Heartbeat CPU 0 instructions: 630000003 cycles: 1754466091 heartbeat IPC: 0.393285 cumulative IPC: 0.308334 (Simulation time: 0 hr 19 min 15 sec) 
Heartbeat CPU 0 instructions: 640000001 cycles: 1781031544 heartbeat IPC: 0.376429 cumulative IPC: 0.30937 (Simulation time: 0 hr 19 min 32 sec) 
Heartbeat CPU 0 instructions: 650000000 cycles: 1807469868 heartbeat IPC: 0.378239 cumulative IPC: 0.310398 (Simulation time: 0 hr 19 min 49 sec) 
Heartbeat CPU 0 instructions: 660000000 cycles: 1833792646 heartbeat IPC: 0.379899 cumulative IPC: 0.311415 (Simulation time: 0 hr 20 min 5 sec) 
Heartbeat CPU 0 instructions: 670000000 cycles: 1862626770 heartbeat IPC: 0.346811 cumulative IPC: 0.311974 (Simulation time: 0 hr 20 min 23 sec) 
Heartbeat CPU 0 instructions: 680000001 cycles: 1888400360 heartbeat IPC: 0.387994 cumulative IPC: 0.313031 (Simulation time: 0 hr 20 min 39 sec) 
Heartbeat CPU 0 instructions: 690000000 cycles: 1926263734 heartbeat IPC: 0.264107 cumulative IPC: 0.312052 (Simulation time: 0 hr 20 min 57 sec) 
Heartbeat CPU 0 instructions: 700000001 cycles: 1966167079 heartbeat IPC: 0.250606 cumulative IPC: 0.310782 (Simulation time: 0 hr 21 min 14 sec) 
Heartbeat CPU 0 instructions: 710000000 cycles: 2004524794 heartbeat IPC: 0.260704 cumulative IPC: 0.309806 (Simulation time: 0 hr 21 min 32 sec) 
Heartbeat CPU 0 instructions: 720000001 cycles: 2040174551 heartbeat IPC: 0.280507 cumulative IPC: 0.309285 (Simulation time: 0 hr 21 min 49 sec) 
Heartbeat CPU 0 instructions: 730000001 cycles: 2082086335 heartbeat IPC: 0.238596 cumulative IPC: 0.307837 (Simulation time: 0 hr 22 min 7 sec) 
Heartbeat CPU 0 instructions: 740000000 cycles: 2120062911 heartbeat IPC: 0.26332 cumulative IPC: 0.307026 (Simulation time: 0 hr 22 min 24 sec) 
Heartbeat CPU 0 instructions: 750000000 cycles: 2156214469 heartbeat IPC: 0.276613 cumulative IPC: 0.306508 (Simulation time: 0 hr 22 min 41 sec) 
Heartbeat CPU 0 instructions: 760000001 cycles: 2196925528 heartbeat IPC: 0.245634 cumulative IPC: 0.305361 (Simulation time: 0 hr 22 min 59 sec) 
Heartbeat CPU 0 instructions: 770000000 cycles: 2241105605 heartbeat IPC: 0.226346 cumulative IPC: 0.303778 (Simulation time: 0 hr 23 min 17 sec) 
Heartbeat CPU 0 instructions: 780000000 cycles: 2283657787 heartbeat IPC: 0.235006 cumulative IPC: 0.302477 (Simulation time: 0 hr 23 min 35 sec) 
Heartbeat CPU 0 instructions: 790000001 cycles: 2327168097 heartbeat IPC: 0.229831 cumulative IPC: 0.301097 (Simulation time: 0 hr 23 min 52 sec) 
Heartbeat CPU 0 instructions: 800000000 cycles: 2355247694 heartbeat IPC: 0.35613 cumulative IPC: 0.301764 (Simulation time: 0 hr 24 min 9 sec) 
Heartbeat CPU 0 instructions: 810000001 cycles: 2385921213 heartbeat IPC: 0.326014 cumulative IPC: 0.30208 (Simulation time: 0 hr 24 min 27 sec) 
Heartbeat CPU 0 instructions: 820000001 cycles: 2411402678 heartbeat IPC: 0.392442 cumulative IPC: 0.303049 (Simulation time: 0 hr 24 min 43 sec) 
Heartbeat CPU 0 instructions: 830000000 cycles: 2438967276 heartbeat IPC: 0.362784 cumulative IPC: 0.303734 (Simulation time: 0 hr 25 min 0 sec) 
Heartbeat CPU 0 instructions: 840000000 cycles: 2466836523 heartbeat IPC: 0.358818 cumulative IPC: 0.304366 (Simulation time: 0 hr 25 min 17 sec) 
Heartbeat CPU 0 instructions: 850000002 cycles: 2501516366 heartbeat IPC: 0.288352 cumulative IPC: 0.304141 (Simulation time: 0 hr 25 min 35 sec) 
Heartbeat CPU 0 instructions: 860000000 cycles: 2530338522 heartbeat IPC: 0.346955 cumulative IPC: 0.304635 (Simulation time: 0 hr 25 min 52 sec) 
Heartbeat CPU 0 instructions: 870000001 cycles: 2561447408 heartbeat IPC: 0.321452 cumulative IPC: 0.304842 (Simulation time: 0 hr 26 min 9 sec) 
Heartbeat CPU 0 instructions: 880000000 cycles: 2587184666 heartbeat IPC: 0.388542 cumulative IPC: 0.305687 (Simulation time: 0 hr 26 min 26 sec) 
Heartbeat CPU 0 instructions: 890000003 cycles: 2614039803 heartbeat IPC: 0.372368 cumulative IPC: 0.306381 (Simulation time: 0 hr 26 min 42 sec) 
Heartbeat CPU 0 instructions: 900000002 cycles: 2641695681 heartbeat IPC: 0.361587 cumulative IPC: 0.306967 (Simulation time: 0 hr 27 min 0 sec) 
Heartbeat CPU 0 instructions: 910000000 cycles: 2667295832 heartbeat IPC: 0.390623 cumulative IPC: 0.307781 (Simulation time: 0 hr 27 min 17 sec) 
Heartbeat CPU 0 instructions: 920000000 cycles: 2693955503 heartbeat IPC: 0.375098 cumulative IPC: 0.308456 (Simulation time: 0 hr 27 min 33 sec) 
Heartbeat CPU 0 instructions: 930000000 cycles: 2722146412 heartbeat IPC: 0.354724 cumulative IPC: 0.308941 (Simulation time: 0 hr 27 min 50 sec) 
Heartbeat CPU 0 instructions: 940000003 cycles: 2752253656 heartbeat IPC: 0.332146 cumulative IPC: 0.309198 (Simulation time: 0 hr 28 min 8 sec) 
Heartbeat CPU 0 instructions: 950000003 cycles: 2797622595 heartbeat IPC: 0.220415 cumulative IPC: 0.30774 (Simulation time: 0 hr 28 min 25 sec) 
Heartbeat CPU 0 instructions: 960000003 cycles: 2842720996 heartbeat IPC: 0.221737 cumulative IPC: 0.306358 (Simulation time: 0 hr 28 min 43 sec) 
Heartbeat CPU 0 instructions: 970000001 cycles: 2888386932 heartbeat IPC: 0.218982 cumulative IPC: 0.30496 (Simulation time: 0 hr 29 min 1 sec) 
Heartbeat CPU 0 instructions: 980000003 cycles: 2934981386 heartbeat IPC: 0.214618 cumulative IPC: 0.303508 (Simulation time: 0 hr 29 min 19 sec) 
Heartbeat CPU 0 instructions: 990000000 cycles: 2980103217 heartbeat IPC: 0.221622 cumulative IPC: 0.302253 (Simulation time: 0 hr 29 min 37 sec) 
Heartbeat CPU 0 instructions: 1000000000 cycles: 3024397076 heartbeat IPC: 0.225765 cumulative IPC: 0.30112 (Simulation time: 0 hr 29 min 55 sec) 
Heartbeat CPU 0 instructions: 1010000003 cycles: 3073179656 heartbeat IPC: 0.204991 cumulative IPC: 0.299576 (Simulation time: 0 hr 30 min 13 sec) 
Heartbeat CPU 0 instructions: 1020000000 cycles: 3107146265 heartbeat IPC: 0.294407 cumulative IPC: 0.299519 (Simulation time: 0 hr 30 min 31 sec) 
Heartbeat CPU 0 instructions: 1030000000 cycles: 3139231255 heartbeat IPC: 0.311672 cumulative IPC: 0.299644 (Simulation time: 0 hr 30 min 48 sec) 
Heartbeat CPU 0 instructions: 1040000000 cycles: 3177944703 heartbeat IPC: 0.258308 cumulative IPC: 0.299135 (Simulation time: 0 hr 31 min 6 sec) 
Heartbeat CPU 0 instructions: 1050000000 cycles: 3206466158 heartbeat IPC: 0.350613 cumulative IPC: 0.299598 (Simulation time: 0 hr 31 min 23 sec) 
Heartbeat CPU 0 instructions: 1060000003 cycles: 3232559979 heartbeat IPC: 0.383233 cumulative IPC: 0.300281 (Simulation time: 0 hr 31 min 40 sec) 
Heartbeat CPU 0 instructions: 1070000000 cycles: 3259245158 heartbeat IPC: 0.37474 cumulative IPC: 0.300897 (Simulation time: 0 hr 31 min 56 sec) 
Heartbeat CPU 0 instructions: 1080000000 cycles: 3289986685 heartbeat IPC: 0.325293 cumulative IPC: 0.301127 (Simulation time: 0 hr 32 min 13 sec) 
Heartbeat CPU 0 instructions: 1090000001 cycles: 3327211713 heartbeat IPC: 0.268636 cumulative IPC: 0.30076 (Simulation time: 0 hr 32 min 31 sec) 
Heartbeat CPU 0 instructions: 1100000000 cycles: 3365214653 heartbeat IPC: 0.263138 cumulative IPC: 0.300331 (Simulation time: 0 hr 32 min 49 sec) 
Finished CPU 0 instructions: 1000000000 cycles: 3329663705 cumulative IPC: 0.300331 (Simulation time: 0 hr 32 min 49 sec) 

ChampSim completed all CPUs

Region of Interest Statistics

CPU 0 cumulative IPC: 0.300331 instructions: 1000000000 cycles: 3329663705
L1D TOTAL     ACCESS:  254645909  HIT:  225865375  MISS:   28780534
L1D LOAD      ACCESS:  212191253  HIT:  183789923  MISS:   28401330
L1D RFO       ACCESS:   42454656  HIT:   42075452  MISS:     379204
L1D PREFETCH  ACCESS:          0  HIT:          0  MISS:          0
L1D WRITEBACK ACCESS:          0  HIT:          0  MISS:          0
L1D PREFETCH  REQUESTED:          0  ISSUED:          0  USEFUL:          0  USELESS:          0
L1D AVERAGE MISS LATENCY: 55.2403 cycles
L1I TOTAL     ACCESS:  197697867  HIT:  197697855  MISS:         12
L1I LOAD      ACCESS:  197697867  HIT:  197697855  MISS:         12
L1I RFO       ACCESS:          0  HIT:          0  MISS:          0
L1I PREFETCH  ACCESS:          0  HIT:          0  MISS:          0
L1I WRITEBACK ACCESS:          0  HIT:          0  MISS:          0
L1I PREFETCH  REQUESTED:          0  ISSUED:          0  USEFUL:          0  USELESS:          0
L1I AVERAGE MISS LATENCY: 181.833 cycles
L2C TOTAL     ACCESS:   38246195  HIT:   17198893  MISS:   21047302
L2C LOAD      ACCESS:   28400838  HIT:    7519354  MISS:   20881484
L2C RFO       ACCESS:     379195  HIT:     217129  MISS:     162066
L2C PREFETCH  ACCESS:          0  HIT:          0  MISS:          0
L2C WRITEBACK ACCESS:    9466162  HIT:    9462410  MISS:       3752
L2C PREFETCH  REQUESTED:          0  ISSUED:          0  USEFUL:          0  USELESS:          0
L2C AVERAGE MISS LATENCY: 50.1068 cycles
LLC TOTAL     ACCESS:   28122107  HIT:   25756762  MISS:    2365345
LLC LOAD      ACCESS:   20881203  HIT:   18519120  MISS:    2362083
LLC RFO       ACCESS:     162064  HIT:     159025  MISS:       3039
LLC PREFETCH  ACCESS:          0  HIT:          0  MISS:          0
LLC WRITEBACK ACCESS:    7078840  HIT:    7078617  MISS:        223
LLC PREFETCH  REQUESTED:          0  ISSUED:          0  USEFUL:          0  USELESS:          0
LLC AVERAGE MISS LATENCY: 162.676 cycles
Major fault: 0 Minor fault: 6231

DRAM Statistics
 CHANNEL 0
 RQ ROW_BUFFER_HIT:     321199  ROW_BUFFER_MISS:    2043884
 DBUS_CONGESTED:      76483
 WQ ROW_BUFFER_HIT:      47051  ROW_BUFFER_MISS:    1386649  FULL:          0

 AVG_CONGESTED_CYCLE: 5

CPU 0 Branch Prediction Accuracy: 72.3402% MPKI: 52.2267 Average ROB Occupancy at Mispredict: 5.04165

Branch types
NOT_BRANCH: 811181313 81.1181%
BRANCH_DIRECT_JUMP: 63895 0.0063895%
BRANCH_INDIRECT: 0 0%
BRANCH_CONDITIONAL: 188708919 18.8709%
BRANCH_DIRECT_CALL: 22746 0.0022746%
BRANCH_INDIRECT_CALL: 0 0%
BRANCH_RETURN: 22746 0.0022746%
BRANCH_OTHER: 0 0%

