
*** ChampSim Multicore Out-of-Order Simulator ***

Warmup Instructions: 100000000
Simulation Instructions: 1000000000
Number of CPUs: 1
LLC sets: 2048
LLC ways: 16
Off-chip DRAM Size: 4096 MB Channels: 1 Width: 64-bit Data Rate: 3200 MT/s

CPU 0 runs /scratch/user/kevin.weston/dpc3-traces/473.champsimtrace.xz
CPU 0 Bimodal branch predictor
Initialize SRRIP state
Heartbeat CPU 0 instructions: 10000002 cycles: 3575280 heartbeat IPC: 2.79698 cumulative IPC: 2.79698 (Simulation time: 0 hr 0 min 24 sec) 
Heartbeat CPU 0 instructions: 20000002 cycles: 7110969 heartbeat IPC: 2.8283 cumulative IPC: 2.81256 (Simulation time: 0 hr 0 min 48 sec) 
Heartbeat CPU 0 instructions: 30000001 cycles: 10661490 heartbeat IPC: 2.81649 cumulative IPC: 2.81387 (Simulation time: 0 hr 1 min 12 sec) 
Heartbeat CPU 0 instructions: 40000001 cycles: 14225816 heartbeat IPC: 2.80558 cumulative IPC: 2.81179 (Simulation time: 0 hr 1 min 36 sec) 
Heartbeat CPU 0 instructions: 50000003 cycles: 17786100 heartbeat IPC: 2.80877 cumulative IPC: 2.81118 (Simulation time: 0 hr 2 min 0 sec) 
Heartbeat CPU 0 instructions: 60000000 cycles: 21332311 heartbeat IPC: 2.81991 cumulative IPC: 2.81263 (Simulation time: 0 hr 2 min 24 sec) 
Heartbeat CPU 0 instructions: 70000002 cycles: 24882878 heartbeat IPC: 2.81645 cumulative IPC: 2.81318 (Simulation time: 0 hr 2 min 48 sec) 
Heartbeat CPU 0 instructions: 80000001 cycles: 28441178 heartbeat IPC: 2.81033 cumulative IPC: 2.81282 (Simulation time: 0 hr 3 min 12 sec) 
Heartbeat CPU 0 instructions: 90000001 cycles: 32008468 heartbeat IPC: 2.80325 cumulative IPC: 2.81176 (Simulation time: 0 hr 3 min 36 sec) 
Heartbeat CPU 0 instructions: 100000001 cycles: 35551106 heartbeat IPC: 2.82276 cumulative IPC: 2.81285 (Simulation time: 0 hr 4 min 0 sec) 

Warmup complete CPU 0 instructions: 100000001 cycles: 35551106 (Simulation time: 0 hr 4 min 0 sec) 

Heartbeat CPU 0 instructions: 110000000 cycles: 65527504 heartbeat IPC: 0.333596 cumulative IPC: 0.333596 (Simulation time: 0 hr 4 min 17 sec) 
Heartbeat CPU 0 instructions: 120000000 cycles: 107676568 heartbeat IPC: 0.237253 cumulative IPC: 0.277295 (Simulation time: 0 hr 4 min 34 sec) 
Heartbeat CPU 0 instructions: 130000001 cycles: 151388464 heartbeat IPC: 0.228771 cumulative IPC: 0.258984 (Simulation time: 0 hr 4 min 52 sec) 
Heartbeat CPU 0 instructions: 140000000 cycles: 181365218 heartbeat IPC: 0.333592 cumulative IPC: 0.274322 (Simulation time: 0 hr 5 min 9 sec) 
Heartbeat CPU 0 instructions: 150000001 cycles: 208287548 heartbeat IPC: 0.371439 cumulative IPC: 0.289458 (Simulation time: 0 hr 5 min 26 sec) 
Heartbeat CPU 0 instructions: 160000000 cycles: 235658182 heartbeat IPC: 0.365355 cumulative IPC: 0.299839 (Simulation time: 0 hr 5 min 43 sec) 
Heartbeat CPU 0 instructions: 170000000 cycles: 268851235 heartbeat IPC: 0.301268 cumulative IPC: 0.300043 (Simulation time: 0 hr 6 min 1 sec) 
Heartbeat CPU 0 instructions: 180000000 cycles: 307260885 heartbeat IPC: 0.260351 cumulative IPC: 0.294432 (Simulation time: 0 hr 6 min 19 sec) 
Heartbeat CPU 0 instructions: 190000000 cycles: 348405800 heartbeat IPC: 0.243043 cumulative IPC: 0.287673 (Simulation time: 0 hr 6 min 36 sec) 
Heartbeat CPU 0 instructions: 200000001 cycles: 388706948 heartbeat IPC: 0.248132 cumulative IPC: 0.283161 (Simulation time: 0 hr 6 min 54 sec) 
Heartbeat CPU 0 instructions: 210000002 cycles: 421641330 heartbeat IPC: 0.303634 cumulative IPC: 0.284907 (Simulation time: 0 hr 7 min 12 sec) 
Heartbeat CPU 0 instructions: 220000000 cycles: 448223532 heartbeat IPC: 0.376191 cumulative IPC: 0.290788 (Simulation time: 0 hr 7 min 29 sec) 
Heartbeat CPU 0 instructions: 230000001 cycles: 476079019 heartbeat IPC: 0.358996 cumulative IPC: 0.2951 (Simulation time: 0 hr 7 min 46 sec) 
Heartbeat CPU 0 instructions: 240000000 cycles: 502351377 heartbeat IPC: 0.380628 cumulative IPC: 0.299914 (Simulation time: 0 hr 8 min 3 sec) 
Heartbeat CPU 0 instructions: 250000003 cycles: 531840673 heartbeat IPC: 0.339106 cumulative IPC: 0.302243 (Simulation time: 0 hr 8 min 20 sec) 
Heartbeat CPU 0 instructions: 260000002 cycles: 573675311 heartbeat IPC: 0.239036 cumulative IPC: 0.297329 (Simulation time: 0 hr 8 min 38 sec) 
Heartbeat CPU 0 instructions: 270000000 cycles: 609843155 heartbeat IPC: 0.276489 cumulative IPC: 0.296017 (Simulation time: 0 hr 8 min 56 sec) 
Heartbeat CPU 0 instructions: 280000003 cycles: 636477254 heartbeat IPC: 0.375459 cumulative IPC: 0.299538 (Simulation time: 0 hr 9 min 13 sec) 
Heartbeat CPU 0 instructions: 290000001 cycles: 669197376 heartbeat IPC: 0.305622 cumulative IPC: 0.299852 (Simulation time: 0 hr 9 min 31 sec) 
Heartbeat CPU 0 instructions: 300000002 cycles: 703682767 heartbeat IPC: 0.289978 cumulative IPC: 0.299342 (Simulation time: 0 hr 9 min 48 sec) 
Heartbeat CPU 0 instructions: 310000003 cycles: 740842035 heartbeat IPC: 0.269112 cumulative IPC: 0.297749 (Simulation time: 0 hr 10 min 6 sec) 
Heartbeat CPU 0 instructions: 320000001 cycles: 773794568 heartbeat IPC: 0.303467 cumulative IPC: 0.298005 (Simulation time: 0 hr 10 min 22 sec) 
Heartbeat CPU 0 instructions: 330000000 cycles: 800601815 heartbeat IPC: 0.373033 cumulative IPC: 0.300634 (Simulation time: 0 hr 10 min 39 sec) 
Heartbeat CPU 0 instructions: 340000003 cycles: 834390581 heartbeat IPC: 0.295956 cumulative IPC: 0.300436 (Simulation time: 0 hr 10 min 56 sec) 
Heartbeat CPU 0 instructions: 350000001 cycles: 868797154 heartbeat IPC: 0.290642 cumulative IPC: 0.300031 (Simulation time: 0 hr 11 min 13 sec) 
Heartbeat CPU 0 instructions: 360000000 cycles: 909410725 heartbeat IPC: 0.246223 cumulative IPC: 0.297531 (Simulation time: 0 hr 11 min 31 sec) 
Heartbeat CPU 0 instructions: 370000000 cycles: 947124401 heartbeat IPC: 0.265156 cumulative IPC: 0.296191 (Simulation time: 0 hr 11 min 48 sec) 
Heartbeat CPU 0 instructions: 380000000 cycles: 974725045 heartbeat IPC: 0.36231 cumulative IPC: 0.298134 (Simulation time: 0 hr 12 min 5 sec) 
Heartbeat CPU 0 instructions: 390000002 cycles: 1009942911 heartbeat IPC: 0.283947 cumulative IPC: 0.297622 (Simulation time: 0 hr 12 min 22 sec) 
Heartbeat CPU 0 instructions: 400000002 cycles: 1043554053 heartbeat IPC: 0.29752 cumulative IPC: 0.297618 (Simulation time: 0 hr 12 min 39 sec) 
Heartbeat CPU 0 instructions: 410000000 cycles: 1074577948 heartbeat IPC: 0.322332 cumulative IPC: 0.298356 (Simulation time: 0 hr 12 min 56 sec) 
Heartbeat CPU 0 instructions: 420000001 cycles: 1106566272 heartbeat IPC: 0.312614 cumulative IPC: 0.298782 (Simulation time: 0 hr 13 min 13 sec) 
Heartbeat CPU 0 instructions: 430000000 cycles: 1136321583 heartbeat IPC: 0.336074 cumulative IPC: 0.29979 (Simulation time: 0 hr 13 min 30 sec) 
Heartbeat CPU 0 instructions: 440000000 cycles: 1177126535 heartbeat IPC: 0.245068 cumulative IPC: 0.297834 (Simulation time: 0 hr 13 min 48 sec) 
Heartbeat CPU 0 instructions: 450000000 cycles: 1216798695 heartbeat IPC: 0.252066 cumulative IPC: 0.296297 (Simulation time: 0 hr 14 min 5 sec) 
Heartbeat CPU 0 instructions: 460000000 cycles: 1252607171 heartbeat IPC: 0.279263 cumulative IPC: 0.295796 (Simulation time: 0 hr 14 min 23 sec) 
Heartbeat CPU 0 instructions: 470000000 cycles: 1284762243 heartbeat IPC: 0.310993 cumulative IPC: 0.296187 (Simulation time: 0 hr 14 min 40 sec) 
Heartbeat CPU 0 instructions: 480000002 cycles: 1313011038 heartbeat IPC: 0.353997 cumulative IPC: 0.297465 (Simulation time: 0 hr 14 min 57 sec) 
Heartbeat CPU 0 instructions: 490000000 cycles: 1339854702 heartbeat IPC: 0.372527 cumulative IPC: 0.29901 (Simulation time: 0 hr 15 min 14 sec) 
Heartbeat CPU 0 instructions: 500000001 cycles: 1366351925 heartbeat IPC: 0.377398 cumulative IPC: 0.300571 (Simulation time: 0 hr 15 min 30 sec) 
Heartbeat CPU 0 instructions: 510000001 cycles: 1391228885 heartbeat IPC: 0.401978 cumulative IPC: 0.302432 (Simulation time: 0 hr 15 min 46 sec) 
Heartbeat CPU 0 instructions: 520000002 cycles: 1418150925 heartbeat IPC: 0.371443 cumulative IPC: 0.303776 (Simulation time: 0 hr 16 min 3 sec) 
Heartbeat CPU 0 instructions: 530000002 cycles: 1447026916 heartbeat IPC: 0.346308 cumulative IPC: 0.304646 (Simulation time: 0 hr 16 min 20 sec) 
Heartbeat CPU 0 instructions: 540000003 cycles: 1476441924 heartbeat IPC: 0.339963 cumulative IPC: 0.305367 (Simulation time: 0 hr 16 min 37 sec) 
Heartbeat CPU 0 instructions: 550000000 cycles: 1514355045 heartbeat IPC: 0.263761 cumulative IPC: 0.3043 (Simulation time: 0 hr 16 min 54 sec) 
Heartbeat CPU 0 instructions: 560000003 cycles: 1555593739 heartbeat IPC: 0.242491 cumulative IPC: 0.302623 (Simulation time: 0 hr 17 min 12 sec) 
Heartbeat CPU 0 instructions: 570000002 cycles: 1595373479 heartbeat IPC: 0.251384 cumulative IPC: 0.301316 (Simulation time: 0 hr 17 min 30 sec) 
Heartbeat CPU 0 instructions: 580000001 cycles: 1622736765 heartbeat IPC: 0.365453 cumulative IPC: 0.302422 (Simulation time: 0 hr 17 min 47 sec) 
Heartbeat CPU 0 instructions: 590000000 cycles: 1649672601 heartbeat IPC: 0.371253 cumulative IPC: 0.303571 (Simulation time: 0 hr 18 min 4 sec) 
Heartbeat CPU 0 instructions: 600000001 cycles: 1677895395 heartbeat IPC: 0.354324 cumulative IPC: 0.304443 (Simulation time: 0 hr 18 min 21 sec) 
Heartbeat CPU 0 instructions: 610000001 cycles: 1704498652 heartbeat IPC: 0.375894 cumulative IPC: 0.305582 (Simulation time: 0 hr 18 min 38 sec) 
Heartbeat CPU 0 instructions: 620000000 cycles: 1730003904 heartbeat IPC: 0.392076 cumulative IPC: 0.306884 (Simulation time: 0 hr 18 min 54 sec) 
Heartbeat CPU 0 instructions: 630000003 cycles: 1755444231 heartbeat IPC: 0.393077 cumulative IPC: 0.308159 (Simulation time: 0 hr 19 min 11 sec) 
Heartbeat CPU 0 instructions: 640000001 cycles: 1782048013 heartbeat IPC: 0.375886 cumulative IPC: 0.30919 (Simulation time: 0 hr 19 min 27 sec) 
Heartbeat CPU 0 instructions: 650000000 cycles: 1808506097 heartbeat IPC: 0.377956 cumulative IPC: 0.310217 (Simulation time: 0 hr 19 min 44 sec) 
Heartbeat CPU 0 instructions: 660000000 cycles: 1834921695 heartbeat IPC: 0.378564 cumulative IPC: 0.31122 (Simulation time: 0 hr 20 min 1 sec) 
Heartbeat CPU 0 instructions: 670000000 cycles: 1863826650 heartbeat IPC: 0.345961 cumulative IPC: 0.311769 (Simulation time: 0 hr 20 min 17 sec) 
Heartbeat CPU 0 instructions: 680000001 cycles: 1889637369 heartbeat IPC: 0.387436 cumulative IPC: 0.312823 (Simulation time: 0 hr 20 min 34 sec) 
Heartbeat CPU 0 instructions: 690000000 cycles: 1927562009 heartbeat IPC: 0.263681 cumulative IPC: 0.311838 (Simulation time: 0 hr 20 min 51 sec) 
Heartbeat CPU 0 instructions: 700000001 cycles: 1967503577 heartbeat IPC: 0.250366 cumulative IPC: 0.310567 (Simulation time: 0 hr 21 min 9 sec) 
Heartbeat CPU 0 instructions: 710000000 cycles: 2005870047 heartbeat IPC: 0.260644 cumulative IPC: 0.309595 (Simulation time: 0 hr 21 min 26 sec) 
Heartbeat CPU 0 instructions: 720000001 cycles: 2041541913 heartbeat IPC: 0.280333 cumulative IPC: 0.309074 (Simulation time: 0 hr 21 min 44 sec) 
Heartbeat CPU 0 instructions: 730000001 cycles: 2083495212 heartbeat IPC: 0.23836 cumulative IPC: 0.307626 (Simulation time: 0 hr 22 min 1 sec) 
Heartbeat CPU 0 instructions: 740000000 cycles: 2121503428 heartbeat IPC: 0.263101 cumulative IPC: 0.306814 (Simulation time: 0 hr 22 min 19 sec) 
Heartbeat CPU 0 instructions: 750000000 cycles: 2157698498 heartbeat IPC: 0.276281 cumulative IPC: 0.306294 (Simulation time: 0 hr 22 min 36 sec) 
Heartbeat CPU 0 instructions: 760000001 cycles: 2198439977 heartbeat IPC: 0.24545 cumulative IPC: 0.305147 (Simulation time: 0 hr 22 min 53 sec) 
Heartbeat CPU 0 instructions: 770000000 cycles: 2242455576 heartbeat IPC: 0.227192 cumulative IPC: 0.303593 (Simulation time: 0 hr 23 min 11 sec) 
Heartbeat CPU 0 instructions: 780000000 cycles: 2285022696 heartbeat IPC: 0.234923 cumulative IPC: 0.302293 (Simulation time: 0 hr 23 min 29 sec) 
Heartbeat CPU 0 instructions: 790000001 cycles: 2328579133 heartbeat IPC: 0.229587 cumulative IPC: 0.300912 (Simulation time: 0 hr 23 min 47 sec) 
Heartbeat CPU 0 instructions: 800000000 cycles: 2356592885 heartbeat IPC: 0.356968 cumulative IPC: 0.301589 (Simulation time: 0 hr 24 min 4 sec) 
Heartbeat CPU 0 instructions: 810000001 cycles: 2387388390 heartbeat IPC: 0.324723 cumulative IPC: 0.301892 (Simulation time: 0 hr 24 min 21 sec) 
Heartbeat CPU 0 instructions: 820000001 cycles: 2412911726 heartbeat IPC: 0.391798 cumulative IPC: 0.302857 (Simulation time: 0 hr 24 min 37 sec) 
Heartbeat CPU 0 instructions: 830000000 cycles: 2440541912 heartbeat IPC: 0.361923 cumulative IPC: 0.303535 (Simulation time: 0 hr 24 min 54 sec) 
Heartbeat CPU 0 instructions: 840000000 cycles: 2468476221 heartbeat IPC: 0.357983 cumulative IPC: 0.304161 (Simulation time: 0 hr 25 min 12 sec) 
Heartbeat CPU 0 instructions: 850000002 cycles: 2503206896 heartbeat IPC: 0.28793 cumulative IPC: 0.303932 (Simulation time: 0 hr 25 min 29 sec) 
Heartbeat CPU 0 instructions: 860000000 cycles: 2532076855 heartbeat IPC: 0.346381 cumulative IPC: 0.304423 (Simulation time: 0 hr 25 min 46 sec) 
Heartbeat CPU 0 instructions: 870000001 cycles: 2563249587 heartbeat IPC: 0.320793 cumulative IPC: 0.304625 (Simulation time: 0 hr 26 min 3 sec) 
Heartbeat CPU 0 instructions: 880000000 cycles: 2588987126 heartbeat IPC: 0.388537 cumulative IPC: 0.305471 (Simulation time: 0 hr 26 min 20 sec) 
Heartbeat CPU 0 instructions: 890000003 cycles: 2615857571 heartbeat IPC: 0.372156 cumulative IPC: 0.306165 (Simulation time: 0 hr 26 min 37 sec) 
Heartbeat CPU 0 instructions: 900000002 cycles: 2643550345 heartbeat IPC: 0.361105 cumulative IPC: 0.306749 (Simulation time: 0 hr 26 min 54 sec) 
Heartbeat CPU 0 instructions: 910000000 cycles: 2669194913 heartbeat IPC: 0.389946 cumulative IPC: 0.307559 (Simulation time: 0 hr 27 min 11 sec) 
Heartbeat CPU 0 instructions: 920000000 cycles: 2695871757 heartbeat IPC: 0.374857 cumulative IPC: 0.308234 (Simulation time: 0 hr 27 min 27 sec) 
Heartbeat CPU 0 instructions: 930000000 cycles: 2724117381 heartbeat IPC: 0.354037 cumulative IPC: 0.308715 (Simulation time: 0 hr 27 min 45 sec) 
Heartbeat CPU 0 instructions: 940000003 cycles: 2754236662 heartbeat IPC: 0.332013 cumulative IPC: 0.308973 (Simulation time: 0 hr 28 min 2 sec) 
Heartbeat CPU 0 instructions: 950000003 cycles: 2799663284 heartbeat IPC: 0.220135 cumulative IPC: 0.307513 (Simulation time: 0 hr 28 min 19 sec) 
Heartbeat CPU 0 instructions: 960000003 cycles: 2844789254 heartbeat IPC: 0.221602 cumulative IPC: 0.306133 (Simulation time: 0 hr 28 min 37 sec) 
Heartbeat CPU 0 instructions: 970000001 cycles: 2890501869 heartbeat IPC: 0.218758 cumulative IPC: 0.304734 (Simulation time: 0 hr 28 min 55 sec) 
Heartbeat CPU 0 instructions: 980000003 cycles: 2937052822 heartbeat IPC: 0.214818 cumulative IPC: 0.303291 (Simulation time: 0 hr 29 min 13 sec) 
Heartbeat CPU 0 instructions: 990000000 cycles: 2982273328 heartbeat IPC: 0.221139 cumulative IPC: 0.302031 (Simulation time: 0 hr 29 min 31 sec) 
Heartbeat CPU 0 instructions: 1000000000 cycles: 3026328441 heartbeat IPC: 0.226988 cumulative IPC: 0.300925 (Simulation time: 0 hr 29 min 49 sec) 
Heartbeat CPU 0 instructions: 1010000003 cycles: 3073798568 heartbeat IPC: 0.210659 cumulative IPC: 0.299515 (Simulation time: 0 hr 30 min 8 sec) 
Heartbeat CPU 0 instructions: 1020000000 cycles: 3107622269 heartbeat IPC: 0.295651 cumulative IPC: 0.299472 (Simulation time: 0 hr 30 min 25 sec) 
Heartbeat CPU 0 instructions: 1030000000 cycles: 3139779942 heartbeat IPC: 0.310968 cumulative IPC: 0.299591 (Simulation time: 0 hr 30 min 42 sec) 
Heartbeat CPU 0 instructions: 1040000000 cycles: 3178607902 heartbeat IPC: 0.257546 cumulative IPC: 0.299072 (Simulation time: 0 hr 31 min 0 sec) 
Heartbeat CPU 0 instructions: 1050000000 cycles: 3207214453 heartbeat IPC: 0.34957 cumulative IPC: 0.299527 (Simulation time: 0 hr 31 min 17 sec) 
Heartbeat CPU 0 instructions: 1060000003 cycles: 3233273727 heartbeat IPC: 0.383741 cumulative IPC: 0.300214 (Simulation time: 0 hr 31 min 33 sec) 
Heartbeat CPU 0 instructions: 1070000000 cycles: 3260054565 heartbeat IPC: 0.373401 cumulative IPC: 0.300822 (Simulation time: 0 hr 31 min 50 sec) 
Heartbeat CPU 0 instructions: 1080000000 cycles: 3290870132 heartbeat IPC: 0.324511 cumulative IPC: 0.301046 (Simulation time: 0 hr 32 min 7 sec) 
Heartbeat CPU 0 instructions: 1090000001 cycles: 3328166375 heartbeat IPC: 0.268124 cumulative IPC: 0.300673 (Simulation time: 0 hr 32 min 25 sec) 
Heartbeat CPU 0 instructions: 1100000000 cycles: 3366212952 heartbeat IPC: 0.262836 cumulative IPC: 0.300241 (Simulation time: 0 hr 32 min 42 sec) 
Finished CPU 0 instructions: 1000000000 cycles: 3330661854 cumulative IPC: 0.300241 (Simulation time: 0 hr 32 min 42 sec) 

ChampSim completed all CPUs

Region of Interest Statistics

CPU 0 cumulative IPC: 0.300241 instructions: 1000000000 cycles: 3330661854
L1D TOTAL     ACCESS:  254646793  HIT:  225866258  MISS:   28780535
L1D LOAD      ACCESS:  212191894  HIT:  183790563  MISS:   28401331
L1D RFO       ACCESS:   42454899  HIT:   42075695  MISS:     379204
L1D PREFETCH  ACCESS:          0  HIT:          0  MISS:          0
L1D WRITEBACK ACCESS:          0  HIT:          0  MISS:          0
L1D PREFETCH  REQUESTED:          0  ISSUED:          0  USEFUL:          0  USELESS:          0
L1D AVERAGE MISS LATENCY: 55.2424 cycles
L1I TOTAL     ACCESS:  197697849  HIT:  197697837  MISS:         12
L1I LOAD      ACCESS:  197697849  HIT:  197697837  MISS:         12
L1I RFO       ACCESS:          0  HIT:          0  MISS:          0
L1I PREFETCH  ACCESS:          0  HIT:          0  MISS:          0
L1I WRITEBACK ACCESS:          0  HIT:          0  MISS:          0
L1I PREFETCH  REQUESTED:          0  ISSUED:          0  USEFUL:          0  USELESS:          0
L1I AVERAGE MISS LATENCY: 198.5 cycles
L2C TOTAL     ACCESS:   38246196  HIT:   17198899  MISS:   21047297
L2C LOAD      ACCESS:   28400838  HIT:    7519360  MISS:   20881478
L2C RFO       ACCESS:     379195  HIT:     217129  MISS:     162066
L2C PREFETCH  ACCESS:          0  HIT:          0  MISS:          0
L2C WRITEBACK ACCESS:    9466163  HIT:    9462410  MISS:       3753
L2C PREFETCH  REQUESTED:          0  ISSUED:          0  USEFUL:          0  USELESS:          0
L2C AVERAGE MISS LATENCY: 50.1098 cycles
LLC TOTAL     ACCESS:   28122101  HIT:   25671532  MISS:    2450569
LLC LOAD      ACCESS:   20881197  HIT:   18513723  MISS:    2367474
LLC RFO       ACCESS:     162064  HIT:     159399  MISS:       2665
LLC PREFETCH  ACCESS:          0  HIT:          0  MISS:          0
LLC WRITEBACK ACCESS:    7078840  HIT:    6998410  MISS:      80430
LLC PREFETCH  REQUESTED:          0  ISSUED:          0  USEFUL:          0  USELESS:          0
LLC AVERAGE MISS LATENCY: 157.007 cycles
Major fault: 0 Minor fault: 6231

DRAM Statistics
 CHANNEL 0
 RQ ROW_BUFFER_HIT:     323699  ROW_BUFFER_MISS:    2046424
 DBUS_CONGESTED:      75688
 WQ ROW_BUFFER_HIT:      38164  ROW_BUFFER_MISS:    1373373  FULL:          0

 AVG_CONGESTED_CYCLE: 5

CPU 0 Branch Prediction Accuracy: 72.3402% MPKI: 52.2267 Average ROB Occupancy at Mispredict: 5.04167

Branch types
NOT_BRANCH: 811181313 81.1181%
BRANCH_DIRECT_JUMP: 63895 0.0063895%
BRANCH_INDIRECT: 0 0%
BRANCH_CONDITIONAL: 188708919 18.8709%
BRANCH_DIRECT_CALL: 22746 0.0022746%
BRANCH_INDIRECT_CALL: 0 0%
BRANCH_RETURN: 22746 0.0022746%
BRANCH_OTHER: 0 0%

