
*** ChampSim Multicore Out-of-Order Simulator ***

Warmup Instructions: 100000000
Simulation Instructions: 1000000000
Number of CPUs: 1
LLC sets: 2048
LLC ways: 16
Off-chip DRAM Size: 4096 MB Channels: 1 Width: 64-bit Data Rate: 3200 MT/s

CPU 0 runs /scratch/user/kevin.weston/dpc3-traces/473.champsimtrace.xz
CPU 0 Bimodal branch predictor
Initialize RRPV
Initialize PRRIP state
Heartbeat CPU 0 instructions: 10000002 cycles: 3575349 heartbeat IPC: 2.79693 cumulative IPC: 2.79693 (Simulation time: 0 hr 0 min 27 sec) 
Heartbeat CPU 0 instructions: 20000002 cycles: 7111688 heartbeat IPC: 2.82778 cumulative IPC: 2.81227 (Simulation time: 0 hr 0 min 53 sec) 
Heartbeat CPU 0 instructions: 30000001 cycles: 10663135 heartbeat IPC: 2.81575 cumulative IPC: 2.81343 (Simulation time: 0 hr 1 min 19 sec) 
Heartbeat CPU 0 instructions: 40000001 cycles: 14229414 heartbeat IPC: 2.80404 cumulative IPC: 2.81108 (Simulation time: 0 hr 1 min 46 sec) 
Heartbeat CPU 0 instructions: 50000003 cycles: 17791034 heartbeat IPC: 2.80771 cumulative IPC: 2.8104 (Simulation time: 0 hr 2 min 12 sec) 
Heartbeat CPU 0 instructions: 60000000 cycles: 21338115 heartbeat IPC: 2.81922 cumulative IPC: 2.81187 (Simulation time: 0 hr 2 min 39 sec) 
Heartbeat CPU 0 instructions: 70000002 cycles: 24890352 heartbeat IPC: 2.81513 cumulative IPC: 2.81233 (Simulation time: 0 hr 3 min 5 sec) 
Heartbeat CPU 0 instructions: 80000001 cycles: 28449661 heartbeat IPC: 2.80953 cumulative IPC: 2.81198 (Simulation time: 0 hr 3 min 31 sec) 
Heartbeat CPU 0 instructions: 90000001 cycles: 32017887 heartbeat IPC: 2.80251 cumulative IPC: 2.81093 (Simulation time: 0 hr 3 min 58 sec) 
Heartbeat CPU 0 instructions: 100000001 cycles: 35561892 heartbeat IPC: 2.82167 cumulative IPC: 2.812 (Simulation time: 0 hr 4 min 24 sec) 

Warmup complete CPU 0 instructions: 100000001 cycles: 35561892 (Simulation time: 0 hr 4 min 24 sec) 

Heartbeat CPU 0 instructions: 110000000 cycles: 67750210 heartbeat IPC: 0.310672 cumulative IPC: 0.310672 (Simulation time: 0 hr 4 min 44 sec) 
Heartbeat CPU 0 instructions: 120000000 cycles: 111715488 heartbeat IPC: 0.227452 cumulative IPC: 0.262627 (Simulation time: 0 hr 5 min 5 sec) 
Heartbeat CPU 0 instructions: 130000001 cycles: 157240588 heartbeat IPC: 0.219659 cumulative IPC: 0.246551 (Simulation time: 0 hr 5 min 26 sec) 
Heartbeat CPU 0 instructions: 140000000 cycles: 188703665 heartbeat IPC: 0.317833 cumulative IPC: 0.261196 (Simulation time: 0 hr 5 min 46 sec) 
Heartbeat CPU 0 instructions: 150000001 cycles: 217585623 heartbeat IPC: 0.346237 cumulative IPC: 0.274689 (Simulation time: 0 hr 6 min 6 sec) 
Heartbeat CPU 0 instructions: 160000000 cycles: 246438428 heartbeat IPC: 0.346587 cumulative IPC: 0.284527 (Simulation time: 0 hr 6 min 25 sec) 
Heartbeat CPU 0 instructions: 170000000 cycles: 281550197 heartbeat IPC: 0.284805 cumulative IPC: 0.284566 (Simulation time: 0 hr 6 min 46 sec) 
Heartbeat CPU 0 instructions: 180000000 cycles: 321597246 heartbeat IPC: 0.249706 cumulative IPC: 0.279686 (Simulation time: 0 hr 7 min 7 sec) 
Heartbeat CPU 0 instructions: 190000000 cycles: 364871489 heartbeat IPC: 0.231084 cumulative IPC: 0.273299 (Simulation time: 0 hr 7 min 27 sec) 
Heartbeat CPU 0 instructions: 200000001 cycles: 407064781 heartbeat IPC: 0.237005 cumulative IPC: 0.269177 (Simulation time: 0 hr 7 min 48 sec) 
Heartbeat CPU 0 instructions: 210000002 cycles: 441884368 heartbeat IPC: 0.287195 cumulative IPC: 0.270721 (Simulation time: 0 hr 8 min 8 sec) 
Heartbeat CPU 0 instructions: 220000000 cycles: 470587470 heartbeat IPC: 0.348394 cumulative IPC: 0.275846 (Simulation time: 0 hr 8 min 28 sec) 
Heartbeat CPU 0 instructions: 230000001 cycles: 500241676 heartbeat IPC: 0.33722 cumulative IPC: 0.279763 (Simulation time: 0 hr 8 min 48 sec) 
Heartbeat CPU 0 instructions: 240000000 cycles: 528496418 heartbeat IPC: 0.353923 cumulative IPC: 0.284013 (Simulation time: 0 hr 9 min 7 sec) 
Heartbeat CPU 0 instructions: 250000003 cycles: 559540463 heartbeat IPC: 0.322123 cumulative IPC: 0.286271 (Simulation time: 0 hr 9 min 27 sec) 
Heartbeat CPU 0 instructions: 260000002 cycles: 603533391 heartbeat IPC: 0.227309 cumulative IPC: 0.281704 (Simulation time: 0 hr 9 min 48 sec) 
Heartbeat CPU 0 instructions: 270000000 cycles: 641517000 heartbeat IPC: 0.263271 cumulative IPC: 0.280549 (Simulation time: 0 hr 10 min 8 sec) 
Heartbeat CPU 0 instructions: 280000003 cycles: 672818184 heartbeat IPC: 0.319477 cumulative IPC: 0.282461 (Simulation time: 0 hr 10 min 28 sec) 
Heartbeat CPU 0 instructions: 290000001 cycles: 708113858 heartbeat IPC: 0.283321 cumulative IPC: 0.282506 (Simulation time: 0 hr 10 min 48 sec) 
Heartbeat CPU 0 instructions: 300000002 cycles: 744040764 heartbeat IPC: 0.278343 cumulative IPC: 0.282295 (Simulation time: 0 hr 11 min 8 sec) 
Heartbeat CPU 0 instructions: 310000003 cycles: 782326667 heartbeat IPC: 0.261193 cumulative IPC: 0.281213 (Simulation time: 0 hr 11 min 28 sec) 
Heartbeat CPU 0 instructions: 320000001 cycles: 817411489 heartbeat IPC: 0.285023 cumulative IPC: 0.281384 (Simulation time: 0 hr 11 min 48 sec) 
Heartbeat CPU 0 instructions: 330000000 cycles: 845765634 heartbeat IPC: 0.352682 cumulative IPC: 0.283879 (Simulation time: 0 hr 12 min 7 sec) 
Heartbeat CPU 0 instructions: 340000003 cycles: 880963926 heartbeat IPC: 0.284105 cumulative IPC: 0.283889 (Simulation time: 0 hr 12 min 27 sec) 
Heartbeat CPU 0 instructions: 350000001 cycles: 916924505 heartbeat IPC: 0.278082 cumulative IPC: 0.283652 (Simulation time: 0 hr 12 min 47 sec) 
Heartbeat CPU 0 instructions: 360000000 cycles: 959183139 heartbeat IPC: 0.236638 cumulative IPC: 0.281501 (Simulation time: 0 hr 13 min 7 sec) 
Heartbeat CPU 0 instructions: 370000000 cycles: 998578305 heartbeat IPC: 0.253838 cumulative IPC: 0.280369 (Simulation time: 0 hr 13 min 27 sec) 
Heartbeat CPU 0 instructions: 380000000 cycles: 1027934701 heartbeat IPC: 0.340641 cumulative IPC: 0.282152 (Simulation time: 0 hr 13 min 46 sec) 
Heartbeat CPU 0 instructions: 390000002 cycles: 1065940165 heartbeat IPC: 0.26312 cumulative IPC: 0.28145 (Simulation time: 0 hr 14 min 7 sec) 
Heartbeat CPU 0 instructions: 400000002 cycles: 1101416191 heartbeat IPC: 0.28188 cumulative IPC: 0.281464 (Simulation time: 0 hr 14 min 27 sec) 
Heartbeat CPU 0 instructions: 410000000 cycles: 1134743712 heartbeat IPC: 0.300052 cumulative IPC: 0.282028 (Simulation time: 0 hr 14 min 46 sec) 
Heartbeat CPU 0 instructions: 420000001 cycles: 1168244195 heartbeat IPC: 0.298503 cumulative IPC: 0.282515 (Simulation time: 0 hr 15 min 6 sec) 
Heartbeat CPU 0 instructions: 430000000 cycles: 1200171656 heartbeat IPC: 0.31321 cumulative IPC: 0.283357 (Simulation time: 0 hr 15 min 26 sec) 
Heartbeat CPU 0 instructions: 440000000 cycles: 1243258430 heartbeat IPC: 0.23209 cumulative IPC: 0.281528 (Simulation time: 0 hr 15 min 46 sec) 
Heartbeat CPU 0 instructions: 450000000 cycles: 1285676362 heartbeat IPC: 0.235749 cumulative IPC: 0.279974 (Simulation time: 0 hr 16 min 7 sec) 
Heartbeat CPU 0 instructions: 460000000 cycles: 1323497320 heartbeat IPC: 0.264404 cumulative IPC: 0.279517 (Simulation time: 0 hr 16 min 27 sec) 
Heartbeat CPU 0 instructions: 470000000 cycles: 1357117432 heartbeat IPC: 0.297441 cumulative IPC: 0.279973 (Simulation time: 0 hr 16 min 47 sec) 
Heartbeat CPU 0 instructions: 480000002 cycles: 1387390959 heartbeat IPC: 0.330322 cumulative IPC: 0.281101 (Simulation time: 0 hr 17 min 7 sec) 
Heartbeat CPU 0 instructions: 490000000 cycles: 1415620312 heartbeat IPC: 0.354241 cumulative IPC: 0.282597 (Simulation time: 0 hr 17 min 26 sec) 
Heartbeat CPU 0 instructions: 500000001 cycles: 1444231733 heartbeat IPC: 0.349511 cumulative IPC: 0.283956 (Simulation time: 0 hr 17 min 45 sec) 
Heartbeat CPU 0 instructions: 510000001 cycles: 1469774556 heartbeat IPC: 0.391499 cumulative IPC: 0.285871 (Simulation time: 0 hr 18 min 4 sec) 
Heartbeat CPU 0 instructions: 520000002 cycles: 1499103967 heartbeat IPC: 0.340955 cumulative IPC: 0.286975 (Simulation time: 0 hr 18 min 24 sec) 
Heartbeat CPU 0 instructions: 530000002 cycles: 1529592465 heartbeat IPC: 0.327993 cumulative IPC: 0.287812 (Simulation time: 0 hr 18 min 43 sec) 
Heartbeat CPU 0 instructions: 540000003 cycles: 1561127422 heartbeat IPC: 0.317108 cumulative IPC: 0.288418 (Simulation time: 0 hr 19 min 3 sec) 
Heartbeat CPU 0 instructions: 550000000 cycles: 1600680713 heartbeat IPC: 0.252823 cumulative IPC: 0.287518 (Simulation time: 0 hr 19 min 23 sec) 
Heartbeat CPU 0 instructions: 560000003 cycles: 1643513438 heartbeat IPC: 0.233466 cumulative IPC: 0.286078 (Simulation time: 0 hr 19 min 44 sec) 
Heartbeat CPU 0 instructions: 570000002 cycles: 1685203891 heartbeat IPC: 0.239863 cumulative IPC: 0.28491 (Simulation time: 0 hr 20 min 5 sec) 
Heartbeat CPU 0 instructions: 580000001 cycles: 1714522118 heartbeat IPC: 0.341085 cumulative IPC: 0.285891 (Simulation time: 0 hr 20 min 24 sec) 
Heartbeat CPU 0 instructions: 590000000 cycles: 1743636270 heartbeat IPC: 0.343476 cumulative IPC: 0.286873 (Simulation time: 0 hr 20 min 44 sec) 
Heartbeat CPU 0 instructions: 600000001 cycles: 1773456002 heartbeat IPC: 0.335348 cumulative IPC: 0.287705 (Simulation time: 0 hr 21 min 4 sec) 
Heartbeat CPU 0 instructions: 610000001 cycles: 1801466130 heartbeat IPC: 0.357014 cumulative IPC: 0.288804 (Simulation time: 0 hr 21 min 23 sec) 
Heartbeat CPU 0 instructions: 620000000 cycles: 1828613391 heartbeat IPC: 0.368361 cumulative IPC: 0.290008 (Simulation time: 0 hr 21 min 42 sec) 
Heartbeat CPU 0 instructions: 630000003 cycles: 1856178286 heartbeat IPC: 0.36278 cumulative IPC: 0.29111 (Simulation time: 0 hr 22 min 2 sec) 
Heartbeat CPU 0 instructions: 640000001 cycles: 1884637536 heartbeat IPC: 0.35138 cumulative IPC: 0.292038 (Simulation time: 0 hr 22 min 21 sec) 
Heartbeat CPU 0 instructions: 650000000 cycles: 1912289139 heartbeat IPC: 0.361643 cumulative IPC: 0.293063 (Simulation time: 0 hr 22 min 40 sec) 
Heartbeat CPU 0 instructions: 660000000 cycles: 1940827912 heartbeat IPC: 0.3504 cumulative IPC: 0.293922 (Simulation time: 0 hr 23 min 0 sec) 
Heartbeat CPU 0 instructions: 670000000 cycles: 1971164983 heartbeat IPC: 0.32963 cumulative IPC: 0.294482 (Simulation time: 0 hr 23 min 20 sec) 
Heartbeat CPU 0 instructions: 680000001 cycles: 1998603505 heartbeat IPC: 0.364451 cumulative IPC: 0.29546 (Simulation time: 0 hr 23 min 39 sec) 
Heartbeat CPU 0 instructions: 690000000 cycles: 2038492914 heartbeat IPC: 0.250693 cumulative IPC: 0.294568 (Simulation time: 0 hr 23 min 59 sec) 
Heartbeat CPU 0 instructions: 700000001 cycles: 2081342471 heartbeat IPC: 0.233375 cumulative IPC: 0.293287 (Simulation time: 0 hr 24 min 20 sec) 
Heartbeat CPU 0 instructions: 710000000 cycles: 2121418968 heartbeat IPC: 0.249523 cumulative IPC: 0.292446 (Simulation time: 0 hr 24 min 40 sec) 
Heartbeat CPU 0 instructions: 720000001 cycles: 2158408557 heartbeat IPC: 0.270346 cumulative IPC: 0.292061 (Simulation time: 0 hr 25 min 0 sec) 
Heartbeat CPU 0 instructions: 730000001 cycles: 2201953069 heartbeat IPC: 0.22965 cumulative IPC: 0.290806 (Simulation time: 0 hr 25 min 20 sec) 
Heartbeat CPU 0 instructions: 740000000 cycles: 2241099388 heartbeat IPC: 0.255452 cumulative IPC: 0.290179 (Simulation time: 0 hr 25 min 40 sec) 
Heartbeat CPU 0 instructions: 750000000 cycles: 2278581814 heartbeat IPC: 0.266792 cumulative IPC: 0.289788 (Simulation time: 0 hr 26 min 0 sec) 
Heartbeat CPU 0 instructions: 760000001 cycles: 2320416155 heartbeat IPC: 0.239038 cumulative IPC: 0.288859 (Simulation time: 0 hr 26 min 20 sec) 
Heartbeat CPU 0 instructions: 770000000 cycles: 2366093272 heartbeat IPC: 0.218928 cumulative IPC: 0.287488 (Simulation time: 0 hr 26 min 40 sec) 
Heartbeat CPU 0 instructions: 780000000 cycles: 2411818073 heartbeat IPC: 0.2187 cumulative IPC: 0.286164 (Simulation time: 0 hr 27 min 1 sec) 
Heartbeat CPU 0 instructions: 790000001 cycles: 2458979900 heartbeat IPC: 0.212036 cumulative IPC: 0.284722 (Simulation time: 0 hr 27 min 22 sec) 
Heartbeat CPU 0 instructions: 800000000 cycles: 2488596377 heartbeat IPC: 0.33765 cumulative IPC: 0.285361 (Simulation time: 0 hr 27 min 41 sec) 
Heartbeat CPU 0 instructions: 810000001 cycles: 2522228637 heartbeat IPC: 0.297334 cumulative IPC: 0.285523 (Simulation time: 0 hr 28 min 1 sec) 
Heartbeat CPU 0 instructions: 820000001 cycles: 2548611231 heartbeat IPC: 0.379038 cumulative IPC: 0.286505 (Simulation time: 0 hr 28 min 20 sec) 
Heartbeat CPU 0 instructions: 830000000 cycles: 2577621283 heartbeat IPC: 0.344708 cumulative IPC: 0.287169 (Simulation time: 0 hr 28 min 40 sec) 
Heartbeat CPU 0 instructions: 840000000 cycles: 2607309475 heartbeat IPC: 0.336834 cumulative IPC: 0.287742 (Simulation time: 0 hr 29 min 0 sec) 
Heartbeat CPU 0 instructions: 850000002 cycles: 2644188753 heartbeat IPC: 0.271155 cumulative IPC: 0.287508 (Simulation time: 0 hr 29 min 20 sec) 
Heartbeat CPU 0 instructions: 860000000 cycles: 2674763412 heartbeat IPC: 0.327068 cumulative IPC: 0.287966 (Simulation time: 0 hr 29 min 40 sec) 
Heartbeat CPU 0 instructions: 870000001 cycles: 2707983699 heartbeat IPC: 0.301021 cumulative IPC: 0.288128 (Simulation time: 0 hr 30 min 0 sec) 
Heartbeat CPU 0 instructions: 880000000 cycles: 2735091151 heartbeat IPC: 0.368902 cumulative IPC: 0.288939 (Simulation time: 0 hr 30 min 19 sec) 
Heartbeat CPU 0 instructions: 890000003 cycles: 2763056938 heartbeat IPC: 0.35758 cumulative IPC: 0.289643 (Simulation time: 0 hr 30 min 38 sec) 
Heartbeat CPU 0 instructions: 900000002 cycles: 2792156520 heartbeat IPC: 0.343648 cumulative IPC: 0.290213 (Simulation time: 0 hr 30 min 58 sec) 
Heartbeat CPU 0 instructions: 910000000 cycles: 2819236974 heartbeat IPC: 0.36927 cumulative IPC: 0.290982 (Simulation time: 0 hr 31 min 17 sec) 
Heartbeat CPU 0 instructions: 920000000 cycles: 2846845559 heartbeat IPC: 0.362206 cumulative IPC: 0.291682 (Simulation time: 0 hr 31 min 37 sec) 
Heartbeat CPU 0 instructions: 930000000 cycles: 2876281605 heartbeat IPC: 0.33972 cumulative IPC: 0.292179 (Simulation time: 0 hr 31 min 56 sec) 
Heartbeat CPU 0 instructions: 940000003 cycles: 2907677873 heartbeat IPC: 0.318509 cumulative IPC: 0.292467 (Simulation time: 0 hr 32 min 16 sec) 
Heartbeat CPU 0 instructions: 950000003 cycles: 2954569875 heartbeat IPC: 0.213256 cumulative IPC: 0.291195 (Simulation time: 0 hr 32 min 36 sec) 
Heartbeat CPU 0 instructions: 960000003 cycles: 3001268890 heartbeat IPC: 0.214137 cumulative IPC: 0.289981 (Simulation time: 0 hr 32 min 57 sec) 
Heartbeat CPU 0 instructions: 970000001 cycles: 3048006513 heartbeat IPC: 0.21396 cumulative IPC: 0.288802 (Simulation time: 0 hr 33 min 17 sec) 
Heartbeat CPU 0 instructions: 980000003 cycles: 3095857144 heartbeat IPC: 0.208984 cumulative IPC: 0.287554 (Simulation time: 0 hr 33 min 38 sec) 
Heartbeat CPU 0 instructions: 990000000 cycles: 3142380653 heartbeat IPC: 0.214945 cumulative IPC: 0.286467 (Simulation time: 0 hr 33 min 58 sec) 
Heartbeat CPU 0 instructions: 1000000000 cycles: 3187832560 heartbeat IPC: 0.220013 cumulative IPC: 0.285508 (Simulation time: 0 hr 34 min 19 sec) 
Heartbeat CPU 0 instructions: 1010000003 cycles: 3237059863 heartbeat IPC: 0.203139 cumulative IPC: 0.284242 (Simulation time: 0 hr 34 min 40 sec) 
Heartbeat CPU 0 instructions: 1020000000 cycles: 3271882465 heartbeat IPC: 0.28717 cumulative IPC: 0.284273 (Simulation time: 0 hr 35 min 0 sec) 
Heartbeat CPU 0 instructions: 1030000000 cycles: 3305489982 heartbeat IPC: 0.297552 cumulative IPC: 0.28441 (Simulation time: 0 hr 35 min 20 sec) 
Heartbeat CPU 0 instructions: 1040000000 cycles: 3347390774 heartbeat IPC: 0.238659 cumulative IPC: 0.283831 (Simulation time: 0 hr 35 min 40 sec) 
Heartbeat CPU 0 instructions: 1050000000 cycles: 3377111276 heartbeat IPC: 0.336468 cumulative IPC: 0.284299 (Simulation time: 0 hr 36 min 0 sec) 
Heartbeat CPU 0 instructions: 1060000003 cycles: 3404044794 heartbeat IPC: 0.371285 cumulative IPC: 0.284995 (Simulation time: 0 hr 36 min 19 sec) 
Heartbeat CPU 0 instructions: 1070000000 cycles: 3432157748 heartbeat IPC: 0.355708 cumulative IPC: 0.28558 (Simulation time: 0 hr 36 min 38 sec) 
Heartbeat CPU 0 instructions: 1080000000 cycles: 3464858389 heartbeat IPC: 0.305804 cumulative IPC: 0.285773 (Simulation time: 0 hr 36 min 58 sec) 
Heartbeat CPU 0 instructions: 1090000001 cycles: 3504157752 heartbeat IPC: 0.254457 cumulative IPC: 0.285418 (Simulation time: 0 hr 37 min 18 sec) 
Heartbeat CPU 0 instructions: 1100000000 cycles: 3543918055 heartbeat IPC: 0.251507 cumulative IPC: 0.285034 (Simulation time: 0 hr 37 min 39 sec) 
Finished CPU 0 instructions: 1000000000 cycles: 3508356171 cumulative IPC: 0.285034 (Simulation time: 0 hr 37 min 39 sec) 

ChampSim completed all CPUs

Region of Interest Statistics

CPU 0 cumulative IPC: 0.285034 instructions: 1000000000 cycles: 3508356171
L1D TOTAL     ACCESS:  254665382  HIT:  225884858  MISS:   28780524
L1D LOAD      ACCESS:  212209640  HIT:  183808320  MISS:   28401320
L1D RFO       ACCESS:   42455742  HIT:   42076538  MISS:     379204
L1D PREFETCH  ACCESS:          0  HIT:          0  MISS:          0
L1D WRITEBACK ACCESS:          0  HIT:          0  MISS:          0
L1D PREFETCH  REQUESTED:          0  ISSUED:          0  USEFUL:          0  USELESS:          0
L1D AVERAGE MISS LATENCY: 62.2262 cycles
L1I TOTAL     ACCESS:  197699300  HIT:  197699288  MISS:         12
L1I LOAD      ACCESS:  197699300  HIT:  197699288  MISS:         12
L1I RFO       ACCESS:          0  HIT:          0  MISS:          0
L1I PREFETCH  ACCESS:          0  HIT:          0  MISS:          0
L1I WRITEBACK ACCESS:          0  HIT:          0  MISS:          0
L1I PREFETCH  REQUESTED:          0  ISSUED:          0  USEFUL:          0  USELESS:          0
L1I AVERAGE MISS LATENCY: 190.167 cycles
L2C TOTAL     ACCESS:   38246187  HIT:   17199055  MISS:   21047132
L2C LOAD      ACCESS:   28400829  HIT:    7519514  MISS:   20881315
L2C RFO       ACCESS:     379195  HIT:     217129  MISS:     162066
L2C PREFETCH  ACCESS:          0  HIT:          0  MISS:          0
L2C WRITEBACK ACCESS:    9466163  HIT:    9462412  MISS:       3751
L2C PREFETCH  REQUESTED:          0  ISSUED:          0  USEFUL:          0  USELESS:          0
L2C AVERAGE MISS LATENCY: 59.6723 cycles
LLC TOTAL     ACCESS:   28121898  HIT:   23434485  MISS:    4687413
LLC LOAD      ACCESS:   20881038  HIT:   16845621  MISS:    4035417
LLC RFO       ACCESS:     162064  HIT:     159435  MISS:       2629
LLC PREFETCH  ACCESS:          0  HIT:          0  MISS:          0
LLC WRITEBACK ACCESS:    7078796  HIT:    6429429  MISS:     649367
LLC PREFETCH  REQUESTED:          0  ISSUED:          0  USEFUL:          0  USELESS:          0
LLC AVERAGE MISS LATENCY: 125.645 cycles
Major fault: 0 Minor fault: 6231
==============================
Perceptron RRIP Stats:
   Num Updates: 23035548
   Num Trains:  608397
==============================
perceptron #0: 3 -3 -3 3 1 13 1 5 11 5 3 -1 -1 1 1 3 

perceptron #1: 2 -2 0 4 0 12 8 0 6 2 0 2 0 2 2 -20 

perceptron #2: -3 1 -1 -3 -1 7 3 1 5 -1 -5 5 -1 3 -1 -13 

perceptron #3: -4 0 0 0 -2 0 2 2 6 -4 -4 6 -2 4 -2 -14 

perceptron #4: -2 -2 -2 -2 0 -2 -2 0 2 0 4 -4 2 -2 2 -8 

perceptron #5: 2 0 2 -4 -2 -4 -2 6 -6 0 -4 4 0 0 2 -2 

perceptron #6: 3 1 1 -1 -3 1 3 11 -7 -1 -3 -5 1 -1 -3 1 

perceptron #7: -4 -2 6 -10 -4 0 2 4 -2 -6 -2 -6 4 4 -2 4 

perceptron #8: -1 -1 -1 -5 -1 -3 1 1 -5 -7 -3 1 3 -1 1 1 

perceptron #9: -1 3 -1 -3 -1 5 1 5 -5 3 -3 -1 3 3 -3 3 

perceptron #10: 0 6 0 -2 -2 0 0 12 -2 6 -2 0 2 4 0 -2 

perceptron #11: 5 -1 -3 -3 -1 5 3 -5 -3 3 3 -1 1 1 1 -3 

perceptron #12: 5 -1 -1 -3 3 3 3 -3 -3 1 3 1 -5 1 1 1 

perceptron #13: 4 0 2 -2 10 -2 0 -2 -4 2 -2 0 -4 0 4 6 

perceptron #14: 2 -2 4 0 0 4 -2 0 2 0 -8 0 2 -2 0 2 

perceptron #15: -5 5 3 1 5 1 -1 1 1 1 -5 -1 1 -1 -5 1 

perceptron #16: 9 5 -3 3 -1 1 -3 -1 -3 1 -3 1 1 -1 -1 3 

perceptron #17: -5 1 -1 3 3 -5 7 -3 3 -1 -1 3 -1 -3 3 3 

perceptron #18: 4 -2 -2 2 0 0 6 -2 0 2 6 4 -2 -4 2 0 

perceptron #19: -2 0 -2 -2 -2 -2 6 6 -2 -4 2 -4 0 0 -2 4 

perceptron #20: 4 -6 6 0 0 -4 4 2 -6 -2 -4 -8 0 0 0 0 

perceptron #21: -6 -2 0 -4 0 -8 6 2 6 6 0 2 -2 -2 -4 2 

perceptron #22: 3 -5 1 7 -1 1 -1 -5 -3 -1 -1 7 -1 5 1 -3 

perceptron #23: -3 3 5 -3 -1 1 -3 -3 -3 1 -5 -1 -3 1 -1 -1 

perceptron #24: 0 0 0 2 0 -6 -8 -4 8 4 -2 0 2 4 2 -10 

perceptron #25: -5 -5 -3 1 -3 -3 5 -1 1 -1 1 -3 -1 -1 1 -5 

perceptron #26: -3 -3 -3 -3 -3 -3 -1 3 -3 -1 -3 5 1 -1 3 -7 

perceptron #27: -8 -2 -2 2 2 2 6 0 2 -2 -4 0 0 4 0 -14 

perceptron #28: -5 -3 -1 -1 -5 1 3 1 -1 -5 1 -1 5 3 3 -11 

perceptron #29: -8 2 -4 2 -4 -2 2 2 0 -2 0 -2 2 0 0 -10 

perceptron #30: -1 -3 -3 -3 -3 1 -1 7 -5 -3 -3 1 3 3 1 -13 

perceptron #31: -1 3 -7 -1 -3 3 3 3 -1 3 3 7 1 -1 3 -7 


DRAM Statistics
 CHANNEL 0
 RQ ROW_BUFFER_HIT:    1233801  ROW_BUFFER_MISS:    2804112
 DBUS_CONGESTED:      97725
 WQ ROW_BUFFER_HIT:      44243  ROW_BUFFER_MISS:    1403546  FULL:          0

 AVG_CONGESTED_CYCLE: 5

CPU 0 Branch Prediction Accuracy: 72.3402% MPKI: 52.2267 Average ROB Occupancy at Mispredict: 5.05354

Branch types
NOT_BRANCH: 811181313 81.1181%
BRANCH_DIRECT_JUMP: 63895 0.0063895%
BRANCH_INDIRECT: 0 0%
BRANCH_CONDITIONAL: 188708919 18.8709%
BRANCH_DIRECT_CALL: 22746 0.0022746%
BRANCH_INDIRECT_CALL: 0 0%
BRANCH_RETURN: 22746 0.0022746%
BRANCH_OTHER: 0 0%

