
*** ChampSim Multicore Out-of-Order Simulator ***

Warmup Instructions: 100000000
Simulation Instructions: 1000000000
Number of CPUs: 1
LLC sets: 2048
LLC ways: 16
Off-chip DRAM Size: 4096 MB Channels: 1 Width: 64-bit Data Rate: 3200 MT/s

CPU 0 runs /scratch/user/kevin.weston/dpc3-traces/473.champsimtrace.xz
CPU 0 Bimodal branch predictor
Initialize SHIP state
Assign rand_sets[0]: 454  LLC: 2048
rand_sets[0]: 454
Assign rand_sets[1]: 1662  LLC: 2048
rand_sets[1]: 1662
Assign rand_sets[2]: 1921  LLC: 2048
rand_sets[2]: 1921
Assign rand_sets[3]: 1131  LLC: 2048
rand_sets[3]: 1131
Assign rand_sets[4]: 331  LLC: 2048
rand_sets[4]: 331
Assign rand_sets[5]: 1531  LLC: 2048
rand_sets[5]: 1531
Assign rand_sets[6]: 482  LLC: 2048
rand_sets[6]: 482
Assign rand_sets[7]: 1275  LLC: 2048
rand_sets[7]: 1275
Assign rand_sets[8]: 1876  LLC: 2048
rand_sets[8]: 1876
Assign rand_sets[9]: 2038  LLC: 2048
rand_sets[9]: 2038
Assign rand_sets[10]: 701  LLC: 2048
rand_sets[10]: 701
Assign rand_sets[11]: 479  LLC: 2048
rand_sets[11]: 479
Assign rand_sets[12]: 892  LLC: 2048
rand_sets[12]: 892
Assign rand_sets[13]: 1820  LLC: 2048
rand_sets[13]: 1820
Assign rand_sets[14]: 1505  LLC: 2048
rand_sets[14]: 1505
Assign rand_sets[15]: 1159  LLC: 2048
rand_sets[15]: 1159
Assign rand_sets[16]: 513  LLC: 2048
rand_sets[16]: 513
Assign rand_sets[17]: 703  LLC: 2048
rand_sets[17]: 703
Assign rand_sets[18]: 561  LLC: 2048
rand_sets[18]: 561
Assign rand_sets[19]: 990  LLC: 2048
rand_sets[19]: 990
Assign rand_sets[20]: 342  LLC: 2048
rand_sets[20]: 342
Assign rand_sets[21]: 882  LLC: 2048
rand_sets[21]: 882
Assign rand_sets[22]: 15  LLC: 2048
rand_sets[22]: 15
Assign rand_sets[23]: 71  LLC: 2048
rand_sets[23]: 71
Assign rand_sets[24]: 1127  LLC: 2048
rand_sets[24]: 1127
Assign rand_sets[25]: 1382  LLC: 2048
rand_sets[25]: 1382
Assign rand_sets[26]: 647  LLC: 2048
rand_sets[26]: 647
Assign rand_sets[27]: 857  LLC: 2048
rand_sets[27]: 857
Assign rand_sets[28]: 1450  LLC: 2048
rand_sets[28]: 1450
Assign rand_sets[29]: 1160  LLC: 2048
rand_sets[29]: 1160
Assign rand_sets[30]: 1852  LLC: 2048
rand_sets[30]: 1852
Assign rand_sets[31]: 1881  LLC: 2048
rand_sets[31]: 1881
Assign rand_sets[32]: 1770  LLC: 2048
rand_sets[32]: 1770
Assign rand_sets[33]: 1622  LLC: 2048
rand_sets[33]: 1622
Assign rand_sets[34]: 275  LLC: 2048
rand_sets[34]: 275
Assign rand_sets[35]: 635  LLC: 2048
rand_sets[35]: 635
Assign rand_sets[36]: 466  LLC: 2048
rand_sets[36]: 466
Assign rand_sets[37]: 1413  LLC: 2048
rand_sets[37]: 1413
Assign rand_sets[38]: 417  LLC: 2048
rand_sets[38]: 417
Assign rand_sets[39]: 472  LLC: 2048
rand_sets[39]: 472
Assign rand_sets[40]: 1340  LLC: 2048
rand_sets[40]: 1340
Assign rand_sets[41]: 852  LLC: 2048
rand_sets[41]: 852
Assign rand_sets[42]: 1365  LLC: 2048
rand_sets[42]: 1365
Assign rand_sets[43]: 47  LLC: 2048
rand_sets[43]: 47
Assign rand_sets[44]: 823  LLC: 2048
rand_sets[44]: 823
Assign rand_sets[45]: 686  LLC: 2048
rand_sets[45]: 686
Assign rand_sets[46]: 1637  LLC: 2048
rand_sets[46]: 1637
Assign rand_sets[47]: 1115  LLC: 2048
rand_sets[47]: 1115
Assign rand_sets[48]: 986  LLC: 2048
rand_sets[48]: 986
Assign rand_sets[49]: 258  LLC: 2048
rand_sets[49]: 258
Assign rand_sets[50]: 633  LLC: 2048
rand_sets[50]: 633
Assign rand_sets[51]: 920  LLC: 2048
rand_sets[51]: 920
Assign rand_sets[52]: 204  LLC: 2048
rand_sets[52]: 204
Assign rand_sets[53]: 227  LLC: 2048
rand_sets[53]: 227
Assign rand_sets[54]: 1818  LLC: 2048
rand_sets[54]: 1818
Assign rand_sets[55]: 886  LLC: 2048
rand_sets[55]: 886
Assign rand_sets[56]: 1422  LLC: 2048
rand_sets[56]: 1422
Assign rand_sets[57]: 607  LLC: 2048
rand_sets[57]: 607
Assign rand_sets[58]: 217  LLC: 2048
rand_sets[58]: 217
Assign rand_sets[59]: 1945  LLC: 2048
rand_sets[59]: 1945
Assign rand_sets[60]: 143  LLC: 2048
rand_sets[60]: 143
Assign rand_sets[61]: 1311  LLC: 2048
rand_sets[61]: 1311
Assign rand_sets[62]: 319  LLC: 2048
rand_sets[62]: 319
Assign rand_sets[63]: 1846  LLC: 2048
rand_sets[63]: 1846
Assign rand_sets[64]: 238  LLC: 2048
rand_sets[64]: 238
Assign rand_sets[65]: 67  LLC: 2048
rand_sets[65]: 67
Assign rand_sets[66]: 1912  LLC: 2048
rand_sets[66]: 1912
Assign rand_sets[67]: 1613  LLC: 2048
rand_sets[67]: 1613
Assign rand_sets[68]: 1293  LLC: 2048
rand_sets[68]: 1293
Assign rand_sets[69]: 1018  LLC: 2048
rand_sets[69]: 1018
Assign rand_sets[70]: 1982  LLC: 2048
rand_sets[70]: 1982
Assign rand_sets[71]: 1702  LLC: 2048
rand_sets[71]: 1702
Assign rand_sets[72]: 1498  LLC: 2048
rand_sets[72]: 1498
Assign rand_sets[73]: 228  LLC: 2048
rand_sets[73]: 228
Assign rand_sets[74]: 1414  LLC: 2048
rand_sets[74]: 1414
Assign rand_sets[75]: 1166  LLC: 2048
rand_sets[75]: 1166
Assign rand_sets[76]: 732  LLC: 2048
rand_sets[76]: 732
Assign rand_sets[77]: 297  LLC: 2048
rand_sets[77]: 297
Assign rand_sets[78]: 1133  LLC: 2048
rand_sets[78]: 1133
Assign rand_sets[79]: 846  LLC: 2048
rand_sets[79]: 846
Assign rand_sets[80]: 767  LLC: 2048
rand_sets[80]: 767
Assign rand_sets[81]: 1878  LLC: 2048
rand_sets[81]: 1878
Assign rand_sets[82]: 993  LLC: 2048
rand_sets[82]: 993
Assign rand_sets[83]: 1392  LLC: 2048
rand_sets[83]: 1392
Assign rand_sets[84]: 1568  LLC: 2048
rand_sets[84]: 1568
Assign rand_sets[85]: 1787  LLC: 2048
rand_sets[85]: 1787
Assign rand_sets[86]: 399  LLC: 2048
rand_sets[86]: 399
Assign rand_sets[87]: 1201  LLC: 2048
rand_sets[87]: 1201
Assign rand_sets[88]: 856  LLC: 2048
rand_sets[88]: 856
Assign rand_sets[89]: 773  LLC: 2048
rand_sets[89]: 773
Assign rand_sets[90]: 1680  LLC: 2048
rand_sets[90]: 1680
Assign rand_sets[91]: 1477  LLC: 2048
rand_sets[91]: 1477
Assign rand_sets[92]: 9  LLC: 2048
rand_sets[92]: 9
Assign rand_sets[93]: 1500  LLC: 2048
rand_sets[93]: 1500
Assign rand_sets[94]: 851  LLC: 2048
rand_sets[94]: 851
Assign rand_sets[95]: 973  LLC: 2048
rand_sets[95]: 973
Assign rand_sets[96]: 938  LLC: 2048
rand_sets[96]: 938
Assign rand_sets[97]: 1851  LLC: 2048
rand_sets[97]: 1851
Assign rand_sets[98]: 1608  LLC: 2048
rand_sets[98]: 1608
Assign rand_sets[99]: 1945  LLC: 2048
Assign rand_sets[99]: 1106  LLC: 2048
rand_sets[99]: 1106
Assign rand_sets[100]: 979  LLC: 2048
rand_sets[100]: 979
Assign rand_sets[101]: 338  LLC: 2048
rand_sets[101]: 338
Assign rand_sets[102]: 1693  LLC: 2048
rand_sets[102]: 1693
Assign rand_sets[103]: 6  LLC: 2048
rand_sets[103]: 6
Assign rand_sets[104]: 671  LLC: 2048
rand_sets[104]: 671
Assign rand_sets[105]: 490  LLC: 2048
rand_sets[105]: 490
Assign rand_sets[106]: 1461  LLC: 2048
rand_sets[106]: 1461
Assign rand_sets[107]: 1730  LLC: 2048
rand_sets[107]: 1730
Assign rand_sets[108]: 1030  LLC: 2048
rand_sets[108]: 1030
Assign rand_sets[109]: 19  LLC: 2048
rand_sets[109]: 19
Assign rand_sets[110]: 920  LLC: 2048
Assign rand_sets[110]: 329  LLC: 2048
rand_sets[110]: 329
Assign rand_sets[111]: 1714  LLC: 2048
rand_sets[111]: 1714
Assign rand_sets[112]: 1  LLC: 2048
rand_sets[112]: 1
Assign rand_sets[113]: 1822  LLC: 2048
rand_sets[113]: 1822
Assign rand_sets[114]: 172  LLC: 2048
rand_sets[114]: 172
Assign rand_sets[115]: 1586  LLC: 2048
rand_sets[115]: 1586
Assign rand_sets[116]: 648  LLC: 2048
rand_sets[116]: 648
Assign rand_sets[117]: 1329  LLC: 2048
rand_sets[117]: 1329
Assign rand_sets[118]: 668  LLC: 2048
rand_sets[118]: 668
Assign rand_sets[119]: 1874  LLC: 2048
rand_sets[119]: 1874
Assign rand_sets[120]: 70  LLC: 2048
rand_sets[120]: 70
Assign rand_sets[121]: 661  LLC: 2048
rand_sets[121]: 661
Assign rand_sets[122]: 1649  LLC: 2048
rand_sets[122]: 1649
Assign rand_sets[123]: 1590  LLC: 2048
rand_sets[123]: 1590
Assign rand_sets[124]: 911  LLC: 2048
rand_sets[124]: 911
Assign rand_sets[125]: 1367  LLC: 2048
rand_sets[125]: 1367
Assign rand_sets[126]: 1782  LLC: 2048
rand_sets[126]: 1782
Assign rand_sets[127]: 569  LLC: 2048
rand_sets[127]: 569
Assign rand_sets[128]: 1309  LLC: 2048
rand_sets[128]: 1309
Assign rand_sets[129]: 534  LLC: 2048
rand_sets[129]: 534
Assign rand_sets[130]: 1274  LLC: 2048
rand_sets[130]: 1274
Assign rand_sets[131]: 904  LLC: 2048
rand_sets[131]: 904
Assign rand_sets[132]: 1908  LLC: 2048
rand_sets[132]: 1908
Assign rand_sets[133]: 245  LLC: 2048
rand_sets[133]: 245
Assign rand_sets[134]: 1688  LLC: 2048
rand_sets[134]: 1688
Assign rand_sets[135]: 1660  LLC: 2048
rand_sets[135]: 1660
Assign rand_sets[136]: 1303  LLC: 2048
rand_sets[136]: 1303
Assign rand_sets[137]: 1628  LLC: 2048
rand_sets[137]: 1628
Assign rand_sets[138]: 1857  LLC: 2048
rand_sets[138]: 1857
Assign rand_sets[139]: 187  LLC: 2048
rand_sets[139]: 187
Assign rand_sets[140]: 1389  LLC: 2048
rand_sets[140]: 1389
Assign rand_sets[141]: 881  LLC: 2048
rand_sets[141]: 881
Assign rand_sets[142]: 1166  LLC: 2048
Assign rand_sets[142]: 1039  LLC: 2048
rand_sets[142]: 1039
Assign rand_sets[143]: 1136  LLC: 2048
rand_sets[143]: 1136
Assign rand_sets[144]: 601  LLC: 2048
rand_sets[144]: 601
Assign rand_sets[145]: 967  LLC: 2048
rand_sets[145]: 967
Assign rand_sets[146]: 769  LLC: 2048
rand_sets[146]: 769
Assign rand_sets[147]: 283  LLC: 2048
rand_sets[147]: 283
Assign rand_sets[148]: 559  LLC: 2048
rand_sets[148]: 559
Assign rand_sets[149]: 1075  LLC: 2048
rand_sets[149]: 1075
Assign rand_sets[150]: 829  LLC: 2048
rand_sets[150]: 829
Assign rand_sets[151]: 1681  LLC: 2048
rand_sets[151]: 1681
Assign rand_sets[152]: 1728  LLC: 2048
rand_sets[152]: 1728
Assign rand_sets[153]: 541  LLC: 2048
rand_sets[153]: 541
Assign rand_sets[154]: 421  LLC: 2048
rand_sets[154]: 421
Assign rand_sets[155]: 1037  LLC: 2048
rand_sets[155]: 1037
Assign rand_sets[156]: 13  LLC: 2048
rand_sets[156]: 13
Assign rand_sets[157]: 1707  LLC: 2048
rand_sets[157]: 1707
Assign rand_sets[158]: 1075  LLC: 2048
Assign rand_sets[158]: 1933  LLC: 2048
rand_sets[158]: 1933
Assign rand_sets[159]: 1406  LLC: 2048
rand_sets[159]: 1406
Assign rand_sets[160]: 94  LLC: 2048
rand_sets[160]: 94
Assign rand_sets[161]: 1423  LLC: 2048
rand_sets[161]: 1423
Assign rand_sets[162]: 1854  LLC: 2048
rand_sets[162]: 1854
Assign rand_sets[163]: 230  LLC: 2048
rand_sets[163]: 230
Assign rand_sets[164]: 104  LLC: 2048
rand_sets[164]: 104
Assign rand_sets[165]: 1652  LLC: 2048
rand_sets[165]: 1652
Assign rand_sets[166]: 1446  LLC: 2048
rand_sets[166]: 1446
Assign rand_sets[167]: 1338  LLC: 2048
rand_sets[167]: 1338
Assign rand_sets[168]: 177  LLC: 2048
rand_sets[168]: 177
Assign rand_sets[169]: 195  LLC: 2048
rand_sets[169]: 195
Assign rand_sets[170]: 1171  LLC: 2048
rand_sets[170]: 1171
Assign rand_sets[171]: 1297  LLC: 2048
rand_sets[171]: 1297
Assign rand_sets[172]: 1704  LLC: 2048
rand_sets[172]: 1704
Assign rand_sets[173]: 100  LLC: 2048
rand_sets[173]: 100
Assign rand_sets[174]: 711  LLC: 2048
rand_sets[174]: 711
Assign rand_sets[175]: 1243  LLC: 2048
rand_sets[175]: 1243
Assign rand_sets[176]: 1738  LLC: 2048
rand_sets[176]: 1738
Assign rand_sets[177]: 1504  LLC: 2048
rand_sets[177]: 1504
Assign rand_sets[178]: 96  LLC: 2048
rand_sets[178]: 96
Assign rand_sets[179]: 1249  LLC: 2048
rand_sets[179]: 1249
Assign rand_sets[180]: 1267  LLC: 2048
rand_sets[180]: 1267
Assign rand_sets[181]: 1727  LLC: 2048
rand_sets[181]: 1727
Assign rand_sets[182]: 1545  LLC: 2048
rand_sets[182]: 1545
Assign rand_sets[183]: 1792  LLC: 2048
rand_sets[183]: 1792
Assign rand_sets[184]: 1383  LLC: 2048
rand_sets[184]: 1383
Assign rand_sets[185]: 1954  LLC: 2048
rand_sets[185]: 1954
Assign rand_sets[186]: 739  LLC: 2048
rand_sets[186]: 739
Assign rand_sets[187]: 1061  LLC: 2048
rand_sets[187]: 1061
Assign rand_sets[188]: 672  LLC: 2048
rand_sets[188]: 672
Assign rand_sets[189]: 1057  LLC: 2048
rand_sets[189]: 1057
Assign rand_sets[190]: 1329  LLC: 2048
Assign rand_sets[190]: 1415  LLC: 2048
rand_sets[190]: 1415
Assign rand_sets[191]: 981  LLC: 2048
rand_sets[191]: 981
Assign rand_sets[192]: 98  LLC: 2048
rand_sets[192]: 98
Assign rand_sets[193]: 453  LLC: 2048
rand_sets[193]: 453
Assign rand_sets[194]: 1448  LLC: 2048
rand_sets[194]: 1448
Assign rand_sets[195]: 79  LLC: 2048
rand_sets[195]: 79
Assign rand_sets[196]: 126  LLC: 2048
rand_sets[196]: 126
Assign rand_sets[197]: 1582  LLC: 2048
rand_sets[197]: 1582
Assign rand_sets[198]: 1289  LLC: 2048
rand_sets[198]: 1289
Assign rand_sets[199]: 875  LLC: 2048
rand_sets[199]: 875
Assign rand_sets[200]: 404  LLC: 2048
rand_sets[200]: 404
Assign rand_sets[201]: 415  LLC: 2048
rand_sets[201]: 415
Assign rand_sets[202]: 1712  LLC: 2048
rand_sets[202]: 1712
Assign rand_sets[203]: 1389  LLC: 2048
Assign rand_sets[203]: 169  LLC: 2048
rand_sets[203]: 169
Assign rand_sets[204]: 158  LLC: 2048
rand_sets[204]: 158
Assign rand_sets[205]: 90  LLC: 2048
rand_sets[205]: 90
Assign rand_sets[206]: 1291  LLC: 2048
rand_sets[206]: 1291
Assign rand_sets[207]: 838  LLC: 2048
rand_sets[207]: 838
Assign rand_sets[208]: 1904  LLC: 2048
rand_sets[208]: 1904
Assign rand_sets[209]: 640  LLC: 2048
rand_sets[209]: 640
Assign rand_sets[210]: 1462  LLC: 2048
rand_sets[210]: 1462
Assign rand_sets[211]: 1487  LLC: 2048
rand_sets[211]: 1487
Assign rand_sets[212]: 1863  LLC: 2048
rand_sets[212]: 1863
Assign rand_sets[213]: 1036  LLC: 2048
rand_sets[213]: 1036
Assign rand_sets[214]: 1702  LLC: 2048
Assign rand_sets[214]: 933  LLC: 2048
rand_sets[214]: 933
Assign rand_sets[215]: 554  LLC: 2048
rand_sets[215]: 554
Assign rand_sets[216]: 1496  LLC: 2048
rand_sets[216]: 1496
Assign rand_sets[217]: 1708  LLC: 2048
rand_sets[217]: 1708
Assign rand_sets[218]: 1275  LLC: 2048
Assign rand_sets[218]: 416  LLC: 2048
rand_sets[218]: 416
Assign rand_sets[219]: 491  LLC: 2048
rand_sets[219]: 491
Assign rand_sets[220]: 183  LLC: 2048
rand_sets[220]: 183
Assign rand_sets[221]: 1657  LLC: 2048
rand_sets[221]: 1657
Assign rand_sets[222]: 1060  LLC: 2048
rand_sets[222]: 1060
Assign rand_sets[223]: 626  LLC: 2048
rand_sets[223]: 626
Assign rand_sets[224]: 1315  LLC: 2048
rand_sets[224]: 1315
Assign rand_sets[225]: 1682  LLC: 2048
rand_sets[225]: 1682
Assign rand_sets[226]: 1352  LLC: 2048
rand_sets[226]: 1352
Assign rand_sets[227]: 1152  LLC: 2048
rand_sets[227]: 1152
Assign rand_sets[228]: 965  LLC: 2048
rand_sets[228]: 965
Assign rand_sets[229]: 1190  LLC: 2048
rand_sets[229]: 1190
Assign rand_sets[230]: 1191  LLC: 2048
rand_sets[230]: 1191
Assign rand_sets[231]: 645  LLC: 2048
rand_sets[231]: 645
Assign rand_sets[232]: 695  LLC: 2048
rand_sets[232]: 695
Assign rand_sets[233]: 1495  LLC: 2048
rand_sets[233]: 1495
Assign rand_sets[234]: 1932  LLC: 2048
rand_sets[234]: 1932
Assign rand_sets[235]: 656  LLC: 2048
rand_sets[235]: 656
Assign rand_sets[236]: 1508  LLC: 2048
rand_sets[236]: 1508
Assign rand_sets[237]: 939  LLC: 2048
rand_sets[237]: 939
Assign rand_sets[238]: 355  LLC: 2048
rand_sets[238]: 355
Assign rand_sets[239]: 1092  LLC: 2048
rand_sets[239]: 1092
Assign rand_sets[240]: 850  LLC: 2048
rand_sets[240]: 850
Assign rand_sets[241]: 102  LLC: 2048
rand_sets[241]: 102
Assign rand_sets[242]: 1763  LLC: 2048
rand_sets[242]: 1763
Assign rand_sets[243]: 668  LLC: 2048
Assign rand_sets[243]: 51  LLC: 2048
rand_sets[243]: 51
Assign rand_sets[244]: 1317  LLC: 2048
rand_sets[244]: 1317
Assign rand_sets[245]: 2041  LLC: 2048
rand_sets[245]: 2041
Assign rand_sets[246]: 1374  LLC: 2048
rand_sets[246]: 1374
Assign rand_sets[247]: 682  LLC: 2048
rand_sets[247]: 682
Assign rand_sets[248]: 1466  LLC: 2048
rand_sets[248]: 1466
Assign rand_sets[249]: 1139  LLC: 2048
rand_sets[249]: 1139
Assign rand_sets[250]: 1632  LLC: 2048
rand_sets[250]: 1632
Assign rand_sets[251]: 1117  LLC: 2048
rand_sets[251]: 1117
Assign rand_sets[252]: 1611  LLC: 2048
rand_sets[252]: 1611
Assign rand_sets[253]: 1905  LLC: 2048
rand_sets[253]: 1905
Assign rand_sets[254]: 1662  LLC: 2048
Assign rand_sets[254]: 446  LLC: 2048
rand_sets[254]: 446
Assign rand_sets[255]: 1705  LLC: 2048
rand_sets[255]: 1705
Heartbeat CPU 0 instructions: 10000002 cycles: 3575215 heartbeat IPC: 2.79704 cumulative IPC: 2.79704 (Simulation time: 0 hr 0 min 23 sec) 
Heartbeat CPU 0 instructions: 20000002 cycles: 7110896 heartbeat IPC: 2.82831 cumulative IPC: 2.81259 (Simulation time: 0 hr 0 min 46 sec) 
Heartbeat CPU 0 instructions: 30000001 cycles: 10661454 heartbeat IPC: 2.81646 cumulative IPC: 2.81388 (Simulation time: 0 hr 1 min 9 sec) 
Heartbeat CPU 0 instructions: 40000001 cycles: 14225683 heartbeat IPC: 2.80566 cumulative IPC: 2.81182 (Simulation time: 0 hr 1 min 32 sec) 
Heartbeat CPU 0 instructions: 50000003 cycles: 17785933 heartbeat IPC: 2.80879 cumulative IPC: 2.81121 (Simulation time: 0 hr 1 min 55 sec) 
Heartbeat CPU 0 instructions: 60000000 cycles: 21332152 heartbeat IPC: 2.8199 cumulative IPC: 2.81266 (Simulation time: 0 hr 2 min 18 sec) 
Heartbeat CPU 0 instructions: 70000002 cycles: 24882760 heartbeat IPC: 2.81642 cumulative IPC: 2.81319 (Simulation time: 0 hr 2 min 41 sec) 
Heartbeat CPU 0 instructions: 80000001 cycles: 28441086 heartbeat IPC: 2.81031 cumulative IPC: 2.81283 (Simulation time: 0 hr 3 min 4 sec) 
Heartbeat CPU 0 instructions: 90000002 cycles: 32008363 heartbeat IPC: 2.80326 cumulative IPC: 2.81177 (Simulation time: 0 hr 3 min 27 sec) 
Heartbeat CPU 0 instructions: 100000001 cycles: 35551158 heartbeat IPC: 2.82263 cumulative IPC: 2.81285 (Simulation time: 0 hr 3 min 50 sec) 

Warmup complete CPU 0 instructions: 100000001 cycles: 35551158 (Simulation time: 0 hr 3 min 50 sec) 

Heartbeat CPU 0 instructions: 110000000 cycles: 65533760 heartbeat IPC: 0.333527 cumulative IPC: 0.333527 (Simulation time: 0 hr 4 min 8 sec) 
Heartbeat CPU 0 instructions: 120000000 cycles: 107601091 heartbeat IPC: 0.237714 cumulative IPC: 0.277585 (Simulation time: 0 hr 4 min 26 sec) 
Heartbeat CPU 0 instructions: 130000001 cycles: 151332412 heartbeat IPC: 0.228669 cumulative IPC: 0.259109 (Simulation time: 0 hr 4 min 44 sec) 
Heartbeat CPU 0 instructions: 140000000 cycles: 181203469 heartbeat IPC: 0.334772 cumulative IPC: 0.274627 (Simulation time: 0 hr 5 min 1 sec) 
Heartbeat CPU 0 instructions: 150000001 cycles: 208077109 heartbeat IPC: 0.372112 cumulative IPC: 0.289811 (Simulation time: 0 hr 5 min 18 sec) 
Heartbeat CPU 0 instructions: 160000000 cycles: 235387888 heartbeat IPC: 0.366156 cumulative IPC: 0.300245 (Simulation time: 0 hr 5 min 35 sec) 
Heartbeat CPU 0 instructions: 170000000 cycles: 268535141 heartbeat IPC: 0.301684 cumulative IPC: 0.30045 (Simulation time: 0 hr 5 min 53 sec) 
Heartbeat CPU 0 instructions: 180000000 cycles: 306931436 heartbeat IPC: 0.260442 cumulative IPC: 0.294789 (Simulation time: 0 hr 6 min 11 sec) 
Heartbeat CPU 0 instructions: 190000000 cycles: 348039348 heartbeat IPC: 0.243262 cumulative IPC: 0.288011 (Simulation time: 0 hr 6 min 29 sec) 
Heartbeat CPU 0 instructions: 200000001 cycles: 388378261 heartbeat IPC: 0.2479 cumulative IPC: 0.283425 (Simulation time: 0 hr 6 min 48 sec) 
Heartbeat CPU 0 instructions: 210000002 cycles: 421455236 heartbeat IPC: 0.302325 cumulative IPC: 0.285045 (Simulation time: 0 hr 7 min 5 sec) 
Heartbeat CPU 0 instructions: 220000000 cycles: 448000510 heartbeat IPC: 0.376715 cumulative IPC: 0.290945 (Simulation time: 0 hr 7 min 23 sec) 
Heartbeat CPU 0 instructions: 230000001 cycles: 475823668 heartbeat IPC: 0.359413 cumulative IPC: 0.295272 (Simulation time: 0 hr 7 min 40 sec) 
Heartbeat CPU 0 instructions: 240000000 cycles: 502031535 heartbeat IPC: 0.381565 cumulative IPC: 0.30012 (Simulation time: 0 hr 7 min 57 sec) 
Heartbeat CPU 0 instructions: 250000003 cycles: 531444068 heartbeat IPC: 0.339991 cumulative IPC: 0.302485 (Simulation time: 0 hr 8 min 15 sec) 
Heartbeat CPU 0 instructions: 260000002 cycles: 573274203 heartbeat IPC: 0.239062 cumulative IPC: 0.297551 (Simulation time: 0 hr 8 min 33 sec) 
Heartbeat CPU 0 instructions: 270000000 cycles: 609436902 heartbeat IPC: 0.276528 cumulative IPC: 0.296226 (Simulation time: 0 hr 8 min 51 sec) 
Heartbeat CPU 0 instructions: 280000003 cycles: 636070440 heartbeat IPC: 0.375467 cumulative IPC: 0.299741 (Simulation time: 0 hr 9 min 8 sec) 
Heartbeat CPU 0 instructions: 290000001 cycles: 668804226 heartbeat IPC: 0.305495 cumulative IPC: 0.300038 (Simulation time: 0 hr 9 min 26 sec) 
Heartbeat CPU 0 instructions: 300000002 cycles: 703260950 heartbeat IPC: 0.290219 cumulative IPC: 0.299531 (Simulation time: 0 hr 9 min 44 sec) 
Heartbeat CPU 0 instructions: 310000003 cycles: 740363547 heartbeat IPC: 0.269523 cumulative IPC: 0.297952 (Simulation time: 0 hr 10 min 1 sec) 
Heartbeat CPU 0 instructions: 320000001 cycles: 773394872 heartbeat IPC: 0.302743 cumulative IPC: 0.298166 (Simulation time: 0 hr 10 min 18 sec) 
Heartbeat CPU 0 instructions: 330000000 cycles: 800078592 heartbeat IPC: 0.37476 cumulative IPC: 0.300839 (Simulation time: 0 hr 10 min 36 sec) 
Heartbeat CPU 0 instructions: 340000003 cycles: 833790836 heartbeat IPC: 0.296628 cumulative IPC: 0.300662 (Simulation time: 0 hr 10 min 53 sec) 
Heartbeat CPU 0 instructions: 350000001 cycles: 868181686 heartbeat IPC: 0.290775 cumulative IPC: 0.300253 (Simulation time: 0 hr 11 min 11 sec) 
Heartbeat CPU 0 instructions: 360000000 cycles: 908903465 heartbeat IPC: 0.245569 cumulative IPC: 0.297703 (Simulation time: 0 hr 11 min 29 sec) 
Heartbeat CPU 0 instructions: 370000000 cycles: 946689977 heartbeat IPC: 0.264645 cumulative IPC: 0.296332 (Simulation time: 0 hr 11 min 47 sec) 
Heartbeat CPU 0 instructions: 380000000 cycles: 974305770 heartbeat IPC: 0.362112 cumulative IPC: 0.298268 (Simulation time: 0 hr 12 min 4 sec) 
Heartbeat CPU 0 instructions: 390000002 cycles: 1009440335 heartbeat IPC: 0.28462 cumulative IPC: 0.297775 (Simulation time: 0 hr 12 min 22 sec) 
Heartbeat CPU 0 instructions: 400000002 cycles: 1043094817 heartbeat IPC: 0.297137 cumulative IPC: 0.297754 (Simulation time: 0 hr 12 min 39 sec) 
Heartbeat CPU 0 instructions: 410000000 cycles: 1074064683 heartbeat IPC: 0.322894 cumulative IPC: 0.298504 (Simulation time: 0 hr 12 min 57 sec) 
Heartbeat CPU 0 instructions: 420000001 cycles: 1106044267 heartbeat IPC: 0.3127 cumulative IPC: 0.298928 (Simulation time: 0 hr 13 min 14 sec) 
Heartbeat CPU 0 instructions: 430000000 cycles: 1135840612 heartbeat IPC: 0.335612 cumulative IPC: 0.299921 (Simulation time: 0 hr 13 min 32 sec) 
Heartbeat CPU 0 instructions: 440000000 cycles: 1176683501 heartbeat IPC: 0.244841 cumulative IPC: 0.29795 (Simulation time: 0 hr 13 min 50 sec) 
Heartbeat CPU 0 instructions: 450000000 cycles: 1216430124 heartbeat IPC: 0.251594 cumulative IPC: 0.296389 (Simulation time: 0 hr 14 min 8 sec) 
Heartbeat CPU 0 instructions: 460000000 cycles: 1252225585 heartbeat IPC: 0.279365 cumulative IPC: 0.295889 (Simulation time: 0 hr 14 min 26 sec) 
Heartbeat CPU 0 instructions: 470000000 cycles: 1284371479 heartbeat IPC: 0.311082 cumulative IPC: 0.29628 (Simulation time: 0 hr 14 min 43 sec) 
Heartbeat CPU 0 instructions: 480000002 cycles: 1312621930 heartbeat IPC: 0.353977 cumulative IPC: 0.297556 (Simulation time: 0 hr 15 min 1 sec) 
Heartbeat CPU 0 instructions: 490000000 cycles: 1339505694 heartbeat IPC: 0.371972 cumulative IPC: 0.29909 (Simulation time: 0 hr 15 min 18 sec) 
Heartbeat CPU 0 instructions: 500000001 cycles: 1366117809 heartbeat IPC: 0.375769 cumulative IPC: 0.300624 (Simulation time: 0 hr 15 min 35 sec) 
Heartbeat CPU 0 instructions: 510000001 cycles: 1391087205 heartbeat IPC: 0.40049 cumulative IPC: 0.302463 (Simulation time: 0 hr 15 min 51 sec) 
Heartbeat CPU 0 instructions: 520000002 cycles: 1418027359 heartbeat IPC: 0.371193 cumulative IPC: 0.303803 (Simulation time: 0 hr 16 min 8 sec) 
Heartbeat CPU 0 instructions: 530000002 cycles: 1446839594 heartbeat IPC: 0.347075 cumulative IPC: 0.304686 (Simulation time: 0 hr 16 min 25 sec) 
Heartbeat CPU 0 instructions: 540000003 cycles: 1476335162 heartbeat IPC: 0.339034 cumulative IPC: 0.305389 (Simulation time: 0 hr 16 min 43 sec) 
Heartbeat CPU 0 instructions: 550000000 cycles: 1514247617 heartbeat IPC: 0.263765 cumulative IPC: 0.304322 (Simulation time: 0 hr 17 min 1 sec) 
Heartbeat CPU 0 instructions: 560000003 cycles: 1555534179 heartbeat IPC: 0.24221 cumulative IPC: 0.302635 (Simulation time: 0 hr 17 min 19 sec) 
Heartbeat CPU 0 instructions: 570000002 cycles: 1595468691 heartbeat IPC: 0.25041 cumulative IPC: 0.301298 (Simulation time: 0 hr 17 min 37 sec) 
Heartbeat CPU 0 instructions: 580000001 cycles: 1622833474 heartbeat IPC: 0.365433 cumulative IPC: 0.302404 (Simulation time: 0 hr 17 min 55 sec) 
Heartbeat CPU 0 instructions: 590000000 cycles: 1649706488 heartbeat IPC: 0.37212 cumulative IPC: 0.303564 (Simulation time: 0 hr 18 min 13 sec) 
Heartbeat CPU 0 instructions: 600000001 cycles: 1677875523 heartbeat IPC: 0.355 cumulative IPC: 0.304447 (Simulation time: 0 hr 18 min 30 sec) 
Heartbeat CPU 0 instructions: 610000001 cycles: 1704494829 heartbeat IPC: 0.375667 cumulative IPC: 0.305583 (Simulation time: 0 hr 18 min 47 sec) 
Heartbeat CPU 0 instructions: 620000000 cycles: 1729945129 heartbeat IPC: 0.392923 cumulative IPC: 0.306894 (Simulation time: 0 hr 19 min 4 sec) 
Heartbeat CPU 0 instructions: 630000003 cycles: 1755431149 heartbeat IPC: 0.392372 cumulative IPC: 0.308161 (Simulation time: 0 hr 19 min 20 sec) 
Heartbeat CPU 0 instructions: 640000001 cycles: 1782049800 heartbeat IPC: 0.375676 cumulative IPC: 0.30919 (Simulation time: 0 hr 19 min 37 sec) 
Heartbeat CPU 0 instructions: 650000000 cycles: 1808560685 heartbeat IPC: 0.377204 cumulative IPC: 0.310207 (Simulation time: 0 hr 19 min 54 sec) 
Heartbeat CPU 0 instructions: 660000000 cycles: 1835009996 heartbeat IPC: 0.378082 cumulative IPC: 0.311205 (Simulation time: 0 hr 20 min 11 sec) 
Heartbeat CPU 0 instructions: 670000000 cycles: 1863900523 heartbeat IPC: 0.346134 cumulative IPC: 0.311757 (Simulation time: 0 hr 20 min 28 sec) 
Heartbeat CPU 0 instructions: 680000001 cycles: 1889684610 heartbeat IPC: 0.387836 cumulative IPC: 0.312815 (Simulation time: 0 hr 20 min 45 sec) 
Heartbeat CPU 0 instructions: 690000000 cycles: 1927573644 heartbeat IPC: 0.263929 cumulative IPC: 0.311836 (Simulation time: 0 hr 21 min 2 sec) 
Heartbeat CPU 0 instructions: 700000001 cycles: 1967411285 heartbeat IPC: 0.251019 cumulative IPC: 0.310582 (Simulation time: 0 hr 21 min 20 sec) 
Heartbeat CPU 0 instructions: 710000000 cycles: 2005713397 heartbeat IPC: 0.261082 cumulative IPC: 0.309619 (Simulation time: 0 hr 21 min 37 sec) 
Heartbeat CPU 0 instructions: 720000001 cycles: 2041429618 heartbeat IPC: 0.279985 cumulative IPC: 0.309092 (Simulation time: 0 hr 21 min 55 sec) 
Heartbeat CPU 0 instructions: 730000001 cycles: 2083396190 heartbeat IPC: 0.238285 cumulative IPC: 0.30764 (Simulation time: 0 hr 22 min 12 sec) 
Heartbeat CPU 0 instructions: 740000000 cycles: 2121399957 heartbeat IPC: 0.263132 cumulative IPC: 0.30683 (Simulation time: 0 hr 22 min 30 sec) 
Heartbeat CPU 0 instructions: 750000000 cycles: 2157650300 heartbeat IPC: 0.275859 cumulative IPC: 0.3063 (Simulation time: 0 hr 22 min 47 sec) 
Heartbeat CPU 0 instructions: 760000001 cycles: 2198370627 heartbeat IPC: 0.245578 cumulative IPC: 0.305157 (Simulation time: 0 hr 23 min 5 sec) 
Heartbeat CPU 0 instructions: 770000000 cycles: 2242350083 heartbeat IPC: 0.227379 cumulative IPC: 0.303607 (Simulation time: 0 hr 23 min 23 sec) 
Heartbeat CPU 0 instructions: 780000000 cycles: 2285011158 heartbeat IPC: 0.234406 cumulative IPC: 0.302295 (Simulation time: 0 hr 23 min 41 sec) 
Heartbeat CPU 0 instructions: 790000001 cycles: 2328646045 heartbeat IPC: 0.229174 cumulative IPC: 0.300903 (Simulation time: 0 hr 23 min 59 sec) 
Heartbeat CPU 0 instructions: 800000000 cycles: 2356710846 heartbeat IPC: 0.356318 cumulative IPC: 0.301573 (Simulation time: 0 hr 24 min 15 sec) 
Heartbeat CPU 0 instructions: 810000001 cycles: 2387603261 heartbeat IPC: 0.323704 cumulative IPC: 0.301864 (Simulation time: 0 hr 24 min 33 sec) 
Heartbeat CPU 0 instructions: 820000001 cycles: 2413089885 heartbeat IPC: 0.392363 cumulative IPC: 0.302834 (Simulation time: 0 hr 24 min 49 sec) 
Heartbeat CPU 0 instructions: 830000000 cycles: 2440666549 heartbeat IPC: 0.362625 cumulative IPC: 0.30352 (Simulation time: 0 hr 25 min 7 sec) 
Heartbeat CPU 0 instructions: 840000000 cycles: 2468574203 heartbeat IPC: 0.358325 cumulative IPC: 0.304148 (Simulation time: 0 hr 25 min 24 sec) 
Heartbeat CPU 0 instructions: 850000002 cycles: 2503254521 heartbeat IPC: 0.288348 cumulative IPC: 0.303926 (Simulation time: 0 hr 25 min 41 sec) 
Heartbeat CPU 0 instructions: 860000000 cycles: 2532113605 heartbeat IPC: 0.346511 cumulative IPC: 0.304419 (Simulation time: 0 hr 25 min 58 sec) 
Heartbeat CPU 0 instructions: 870000001 cycles: 2563253612 heartbeat IPC: 0.32113 cumulative IPC: 0.304624 (Simulation time: 0 hr 26 min 16 sec) 
Heartbeat CPU 0 instructions: 880000000 cycles: 2588830424 heartbeat IPC: 0.390979 cumulative IPC: 0.30549 (Simulation time: 0 hr 26 min 33 sec) 
Heartbeat CPU 0 instructions: 890000003 cycles: 2615634647 heartbeat IPC: 0.373076 cumulative IPC: 0.306192 (Simulation time: 0 hr 26 min 49 sec) 
Heartbeat CPU 0 instructions: 900000002 cycles: 2643248730 heartbeat IPC: 0.362134 cumulative IPC: 0.306784 (Simulation time: 0 hr 27 min 7 sec) 
Heartbeat CPU 0 instructions: 910000000 cycles: 2668866971 heartbeat IPC: 0.390347 cumulative IPC: 0.307597 (Simulation time: 0 hr 27 min 24 sec) 
Heartbeat CPU 0 instructions: 920000000 cycles: 2695570772 heartbeat IPC: 0.374479 cumulative IPC: 0.308268 (Simulation time: 0 hr 27 min 40 sec) 
Heartbeat CPU 0 instructions: 930000000 cycles: 2723830130 heartbeat IPC: 0.353865 cumulative IPC: 0.308748 (Simulation time: 0 hr 27 min 57 sec) 
Heartbeat CPU 0 instructions: 940000003 cycles: 2753909928 heartbeat IPC: 0.332449 cumulative IPC: 0.30901 (Simulation time: 0 hr 28 min 15 sec) 
Heartbeat CPU 0 instructions: 950000003 cycles: 2799329867 heartbeat IPC: 0.220168 cumulative IPC: 0.30755 (Simulation time: 0 hr 28 min 33 sec) 
Heartbeat CPU 0 instructions: 960000003 cycles: 2844505885 heartbeat IPC: 0.221356 cumulative IPC: 0.306164 (Simulation time: 0 hr 28 min 51 sec) 
Heartbeat CPU 0 instructions: 970000001 cycles: 2890272842 heartbeat IPC: 0.218498 cumulative IPC: 0.304758 (Simulation time: 0 hr 29 min 9 sec) 
Heartbeat CPU 0 instructions: 980000003 cycles: 2936864164 heartbeat IPC: 0.214632 cumulative IPC: 0.303311 (Simulation time: 0 hr 29 min 27 sec) 
Heartbeat CPU 0 instructions: 990000000 cycles: 2982117880 heartbeat IPC: 0.220976 cumulative IPC: 0.302046 (Simulation time: 0 hr 29 min 45 sec) 
Heartbeat CPU 0 instructions: 1000000000 cycles: 3026340441 heartbeat IPC: 0.226129 cumulative IPC: 0.300924 (Simulation time: 0 hr 30 min 3 sec) 
Heartbeat CPU 0 instructions: 1010000003 cycles: 3074317217 heartbeat IPC: 0.208434 cumulative IPC: 0.299464 (Simulation time: 0 hr 30 min 22 sec) 
Heartbeat CPU 0 instructions: 1020000000 cycles: 3108234119 heartbeat IPC: 0.294838 cumulative IPC: 0.299413 (Simulation time: 0 hr 30 min 39 sec) 
Heartbeat CPU 0 instructions: 1030000000 cycles: 3140433068 heartbeat IPC: 0.310569 cumulative IPC: 0.299528 (Simulation time: 0 hr 30 min 56 sec) 
Heartbeat CPU 0 instructions: 1040000000 cycles: 3179347472 heartbeat IPC: 0.256974 cumulative IPC: 0.299002 (Simulation time: 0 hr 31 min 14 sec) 
Heartbeat CPU 0 instructions: 1050000000 cycles: 3207941646 heartbeat IPC: 0.349722 cumulative IPC: 0.299459 (Simulation time: 0 hr 31 min 31 sec) 
Heartbeat CPU 0 instructions: 1060000003 cycles: 3234018917 heartbeat IPC: 0.383476 cumulative IPC: 0.300144 (Simulation time: 0 hr 31 min 48 sec) 
Heartbeat CPU 0 instructions: 1070000000 cycles: 3260777589 heartbeat IPC: 0.373711 cumulative IPC: 0.300754 (Simulation time: 0 hr 32 min 5 sec) 
Heartbeat CPU 0 instructions: 1080000000 cycles: 3291631957 heartbeat IPC: 0.324103 cumulative IPC: 0.300975 (Simulation time: 0 hr 32 min 22 sec) 
Heartbeat CPU 0 instructions: 1090000001 cycles: 3329004914 heartbeat IPC: 0.267573 cumulative IPC: 0.300596 (Simulation time: 0 hr 32 min 40 sec) 
Heartbeat CPU 0 instructions: 1100000000 cycles: 3367027531 heartbeat IPC: 0.263001 cumulative IPC: 0.300167 (Simulation time: 0 hr 32 min 58 sec) 
Finished CPU 0 instructions: 1000000000 cycles: 3331476381 cumulative IPC: 0.300167 (Simulation time: 0 hr 32 min 58 sec) 

ChampSim completed all CPUs

Region of Interest Statistics

CPU 0 cumulative IPC: 0.300167 instructions: 1000000000 cycles: 3331476381
L1D TOTAL     ACCESS:  254647740  HIT:  225867221  MISS:   28780519
L1D LOAD      ACCESS:  212192387  HIT:  183791072  MISS:   28401315
L1D RFO       ACCESS:   42455353  HIT:   42076149  MISS:     379204
L1D PREFETCH  ACCESS:          0  HIT:          0  MISS:          0
L1D WRITEBACK ACCESS:          0  HIT:          0  MISS:          0
L1D PREFETCH  REQUESTED:          0  ISSUED:          0  USEFUL:          0  USELESS:          0
L1D AVERAGE MISS LATENCY: 55.267 cycles
L1I TOTAL     ACCESS:  197697927  HIT:  197697915  MISS:         12
L1I LOAD      ACCESS:  197697927  HIT:  197697915  MISS:         12
L1I RFO       ACCESS:          0  HIT:          0  MISS:          0
L1I PREFETCH  ACCESS:          0  HIT:          0  MISS:          0
L1I WRITEBACK ACCESS:          0  HIT:          0  MISS:          0
L1I PREFETCH  REQUESTED:          0  ISSUED:          0  USEFUL:          0  USELESS:          0
L1I AVERAGE MISS LATENCY: 215.167 cycles
L2C TOTAL     ACCESS:   38246184  HIT:   17223881  MISS:   21022303
L2C LOAD      ACCESS:   28400824  HIT:    7540349  MISS:   20860475
L2C RFO       ACCESS:     379195  HIT:     220744  MISS:     158451
L2C PREFETCH  ACCESS:          0  HIT:          0  MISS:          0
L2C WRITEBACK ACCESS:    9466165  HIT:    9462788  MISS:       3377
L2C PREFETCH  REQUESTED:          0  ISSUED:          0  USEFUL:          0  USELESS:          0
L2C AVERAGE MISS LATENCY: 50.2014 cycles
LLC TOTAL     ACCESS:   28075426  HIT:   25646523  MISS:    2428903
LLC LOAD      ACCESS:   20860195  HIT:   18491622  MISS:    2368573
LLC RFO       ACCESS:     158451  HIT:     155757  MISS:       2694
LLC PREFETCH  ACCESS:          0  HIT:          0  MISS:          0
LLC WRITEBACK ACCESS:    7056780  HIT:    6999144  MISS:      57636
LLC PREFETCH  REQUESTED:          0  ISSUED:          0  USEFUL:          0  USELESS:          0
LLC AVERAGE MISS LATENCY: 159.101 cycles
Major fault: 0 Minor fault: 6231

DRAM Statistics
 CHANNEL 0
 RQ ROW_BUFFER_HIT:     310788  ROW_BUFFER_MISS:    2060429
 DBUS_CONGESTED:      75834
 WQ ROW_BUFFER_HIT:      38208  ROW_BUFFER_MISS:    1396163  FULL:          0

 AVG_CONGESTED_CYCLE: 5

CPU 0 Branch Prediction Accuracy: 72.3402% MPKI: 52.2267 Average ROB Occupancy at Mispredict: 5.0418

Branch types
NOT_BRANCH: 811181313 81.1181%
BRANCH_DIRECT_JUMP: 63895 0.0063895%
BRANCH_INDIRECT: 0 0%
BRANCH_CONDITIONAL: 188708919 18.8709%
BRANCH_DIRECT_CALL: 22746 0.0022746%
BRANCH_INDIRECT_CALL: 0 0%
BRANCH_RETURN: 22746 0.0022746%
BRANCH_OTHER: 0 0%

