
*** ChampSim Multicore Out-of-Order Simulator ***

Warmup Instructions: 100000000
Simulation Instructions: 1000000000
Number of CPUs: 1
LLC sets: 2048
LLC ways: 16
Off-chip DRAM Size: 4096 MB Channels: 1 Width: 64-bit Data Rate: 3200 MT/s

CPU 0 runs /scratch/user/kevin.weston/dpc3-traces/473.champsimtrace.xz
CPU 0 Bimodal branch predictor
Initialize DRRIP state
Assign rand_sets[0]: 454  LLC: 2048
rand_sets[0]: 454
Assign rand_sets[1]: 1662  LLC: 2048
rand_sets[1]: 1662
Assign rand_sets[2]: 1921  LLC: 2048
rand_sets[2]: 1921
Assign rand_sets[3]: 1131  LLC: 2048
rand_sets[3]: 1131
Assign rand_sets[4]: 331  LLC: 2048
rand_sets[4]: 331
Assign rand_sets[5]: 1531  LLC: 2048
rand_sets[5]: 1531
Assign rand_sets[6]: 482  LLC: 2048
rand_sets[6]: 482
Assign rand_sets[7]: 1275  LLC: 2048
rand_sets[7]: 1275
Assign rand_sets[8]: 1876  LLC: 2048
rand_sets[8]: 1876
Assign rand_sets[9]: 2038  LLC: 2048
rand_sets[9]: 2038
Assign rand_sets[10]: 701  LLC: 2048
rand_sets[10]: 701
Assign rand_sets[11]: 479  LLC: 2048
rand_sets[11]: 479
Assign rand_sets[12]: 892  LLC: 2048
rand_sets[12]: 892
Assign rand_sets[13]: 1820  LLC: 2048
rand_sets[13]: 1820
Assign rand_sets[14]: 1505  LLC: 2048
rand_sets[14]: 1505
Assign rand_sets[15]: 1159  LLC: 2048
rand_sets[15]: 1159
Assign rand_sets[16]: 513  LLC: 2048
rand_sets[16]: 513
Assign rand_sets[17]: 703  LLC: 2048
rand_sets[17]: 703
Assign rand_sets[18]: 561  LLC: 2048
rand_sets[18]: 561
Assign rand_sets[19]: 990  LLC: 2048
rand_sets[19]: 990
Assign rand_sets[20]: 342  LLC: 2048
rand_sets[20]: 342
Assign rand_sets[21]: 882  LLC: 2048
rand_sets[21]: 882
Assign rand_sets[22]: 15  LLC: 2048
rand_sets[22]: 15
Assign rand_sets[23]: 71  LLC: 2048
rand_sets[23]: 71
Assign rand_sets[24]: 1127  LLC: 2048
rand_sets[24]: 1127
Assign rand_sets[25]: 1382  LLC: 2048
rand_sets[25]: 1382
Assign rand_sets[26]: 647  LLC: 2048
rand_sets[26]: 647
Assign rand_sets[27]: 857  LLC: 2048
rand_sets[27]: 857
Assign rand_sets[28]: 1450  LLC: 2048
rand_sets[28]: 1450
Assign rand_sets[29]: 1160  LLC: 2048
rand_sets[29]: 1160
Assign rand_sets[30]: 1852  LLC: 2048
rand_sets[30]: 1852
Assign rand_sets[31]: 1881  LLC: 2048
rand_sets[31]: 1881
Assign rand_sets[32]: 1770  LLC: 2048
rand_sets[32]: 1770
Assign rand_sets[33]: 1622  LLC: 2048
rand_sets[33]: 1622
Assign rand_sets[34]: 275  LLC: 2048
rand_sets[34]: 275
Assign rand_sets[35]: 635  LLC: 2048
rand_sets[35]: 635
Assign rand_sets[36]: 466  LLC: 2048
rand_sets[36]: 466
Assign rand_sets[37]: 1413  LLC: 2048
rand_sets[37]: 1413
Assign rand_sets[38]: 417  LLC: 2048
rand_sets[38]: 417
Assign rand_sets[39]: 472  LLC: 2048
rand_sets[39]: 472
Assign rand_sets[40]: 1340  LLC: 2048
rand_sets[40]: 1340
Assign rand_sets[41]: 852  LLC: 2048
rand_sets[41]: 852
Assign rand_sets[42]: 1365  LLC: 2048
rand_sets[42]: 1365
Assign rand_sets[43]: 47  LLC: 2048
rand_sets[43]: 47
Assign rand_sets[44]: 823  LLC: 2048
rand_sets[44]: 823
Assign rand_sets[45]: 686  LLC: 2048
rand_sets[45]: 686
Assign rand_sets[46]: 1637  LLC: 2048
rand_sets[46]: 1637
Assign rand_sets[47]: 1115  LLC: 2048
rand_sets[47]: 1115
Assign rand_sets[48]: 986  LLC: 2048
rand_sets[48]: 986
Assign rand_sets[49]: 258  LLC: 2048
rand_sets[49]: 258
Assign rand_sets[50]: 633  LLC: 2048
rand_sets[50]: 633
Assign rand_sets[51]: 920  LLC: 2048
rand_sets[51]: 920
Assign rand_sets[52]: 204  LLC: 2048
rand_sets[52]: 204
Assign rand_sets[53]: 227  LLC: 2048
rand_sets[53]: 227
Assign rand_sets[54]: 1818  LLC: 2048
rand_sets[54]: 1818
Assign rand_sets[55]: 886  LLC: 2048
rand_sets[55]: 886
Assign rand_sets[56]: 1422  LLC: 2048
rand_sets[56]: 1422
Assign rand_sets[57]: 607  LLC: 2048
rand_sets[57]: 607
Assign rand_sets[58]: 217  LLC: 2048
rand_sets[58]: 217
Assign rand_sets[59]: 1945  LLC: 2048
rand_sets[59]: 1945
Assign rand_sets[60]: 143  LLC: 2048
rand_sets[60]: 143
Assign rand_sets[61]: 1311  LLC: 2048
rand_sets[61]: 1311
Assign rand_sets[62]: 319  LLC: 2048
rand_sets[62]: 319
Assign rand_sets[63]: 1846  LLC: 2048
rand_sets[63]: 1846
Heartbeat CPU 0 instructions: 10000002 cycles: 3575306 heartbeat IPC: 2.79696 cumulative IPC: 2.79696 (Simulation time: 0 hr 0 min 24 sec) 
Heartbeat CPU 0 instructions: 20000002 cycles: 7111130 heartbeat IPC: 2.8282 cumulative IPC: 2.81249 (Simulation time: 0 hr 0 min 48 sec) 
Heartbeat CPU 0 instructions: 30000001 cycles: 10661706 heartbeat IPC: 2.81644 cumulative IPC: 2.81381 (Simulation time: 0 hr 1 min 12 sec) 
Heartbeat CPU 0 instructions: 40000001 cycles: 14226041 heartbeat IPC: 2.80557 cumulative IPC: 2.81175 (Simulation time: 0 hr 1 min 36 sec) 
Heartbeat CPU 0 instructions: 50000003 cycles: 17786544 heartbeat IPC: 2.80859 cumulative IPC: 2.81111 (Simulation time: 0 hr 2 min 0 sec) 
Heartbeat CPU 0 instructions: 60000000 cycles: 21332820 heartbeat IPC: 2.81986 cumulative IPC: 2.81257 (Simulation time: 0 hr 2 min 23 sec) 
Heartbeat CPU 0 instructions: 70000002 cycles: 24883545 heartbeat IPC: 2.81633 cumulative IPC: 2.8131 (Simulation time: 0 hr 2 min 47 sec) 
Heartbeat CPU 0 instructions: 80000001 cycles: 28441973 heartbeat IPC: 2.81023 cumulative IPC: 2.81274 (Simulation time: 0 hr 3 min 11 sec) 
Heartbeat CPU 0 instructions: 90000002 cycles: 32009255 heartbeat IPC: 2.80326 cumulative IPC: 2.81169 (Simulation time: 0 hr 3 min 35 sec) 
Heartbeat CPU 0 instructions: 100000001 cycles: 35551969 heartbeat IPC: 2.82269 cumulative IPC: 2.81278 (Simulation time: 0 hr 3 min 59 sec) 

Warmup complete CPU 0 instructions: 100000001 cycles: 35551969 (Simulation time: 0 hr 3 min 59 sec) 

Heartbeat CPU 0 instructions: 110000000 cycles: 65675856 heartbeat IPC: 0.331962 cumulative IPC: 0.331962 (Simulation time: 0 hr 4 min 16 sec) 
Heartbeat CPU 0 instructions: 120000000 cycles: 107931867 heartbeat IPC: 0.236653 cumulative IPC: 0.27632 (Simulation time: 0 hr 4 min 33 sec) 
Heartbeat CPU 0 instructions: 130000001 cycles: 151802953 heartbeat IPC: 0.227941 cumulative IPC: 0.258062 (Simulation time: 0 hr 4 min 51 sec) 
Heartbeat CPU 0 instructions: 140000000 cycles: 181901572 heartbeat IPC: 0.332241 cumulative IPC: 0.273318 (Simulation time: 0 hr 5 min 8 sec) 
Heartbeat CPU 0 instructions: 150000001 cycles: 208834694 heartbeat IPC: 0.37129 cumulative IPC: 0.288546 (Simulation time: 0 hr 5 min 24 sec) 
Heartbeat CPU 0 instructions: 160000000 cycles: 236275494 heartbeat IPC: 0.364421 cumulative IPC: 0.298919 (Simulation time: 0 hr 5 min 41 sec) 
Heartbeat CPU 0 instructions: 170000000 cycles: 269552946 heartbeat IPC: 0.300504 cumulative IPC: 0.299144 (Simulation time: 0 hr 5 min 59 sec) 
Heartbeat CPU 0 instructions: 180000000 cycles: 308125950 heartbeat IPC: 0.259249 cumulative IPC: 0.293498 (Simulation time: 0 hr 6 min 16 sec) 
Heartbeat CPU 0 instructions: 190000000 cycles: 349339979 heartbeat IPC: 0.242636 cumulative IPC: 0.286818 (Simulation time: 0 hr 6 min 34 sec) 
Heartbeat CPU 0 instructions: 200000001 cycles: 390092560 heartbeat IPC: 0.245383 cumulative IPC: 0.282055 (Simulation time: 0 hr 6 min 52 sec) 
Heartbeat CPU 0 instructions: 210000002 cycles: 423452841 heartbeat IPC: 0.299758 cumulative IPC: 0.283578 (Simulation time: 0 hr 7 min 9 sec) 
Heartbeat CPU 0 instructions: 220000000 cycles: 450079801 heartbeat IPC: 0.375559 cumulative IPC: 0.289486 (Simulation time: 0 hr 7 min 26 sec) 
Heartbeat CPU 0 instructions: 230000001 cycles: 478018069 heartbeat IPC: 0.357932 cumulative IPC: 0.293808 (Simulation time: 0 hr 7 min 43 sec) 
Heartbeat CPU 0 instructions: 240000000 cycles: 504379953 heartbeat IPC: 0.379336 cumulative IPC: 0.298617 (Simulation time: 0 hr 8 min 0 sec) 
Heartbeat CPU 0 instructions: 250000003 cycles: 533955003 heartbeat IPC: 0.338123 cumulative IPC: 0.300961 (Simulation time: 0 hr 8 min 17 sec) 
Heartbeat CPU 0 instructions: 260000002 cycles: 575968712 heartbeat IPC: 0.238018 cumulative IPC: 0.296068 (Simulation time: 0 hr 8 min 35 sec) 
Heartbeat CPU 0 instructions: 270000000 cycles: 612230008 heartbeat IPC: 0.275776 cumulative IPC: 0.294792 (Simulation time: 0 hr 8 min 53 sec) 
Heartbeat CPU 0 instructions: 280000003 cycles: 638940180 heartbeat IPC: 0.374389 cumulative IPC: 0.298315 (Simulation time: 0 hr 9 min 10 sec) 
Heartbeat CPU 0 instructions: 290000001 cycles: 671797730 heartbeat IPC: 0.304344 cumulative IPC: 0.298627 (Simulation time: 0 hr 9 min 27 sec) 
Heartbeat CPU 0 instructions: 300000002 cycles: 706401679 heartbeat IPC: 0.288984 cumulative IPC: 0.298129 (Simulation time: 0 hr 9 min 45 sec) 
Heartbeat CPU 0 instructions: 310000003 cycles: 743706611 heartbeat IPC: 0.268061 cumulative IPC: 0.296545 (Simulation time: 0 hr 10 min 2 sec) 
Heartbeat CPU 0 instructions: 320000001 cycles: 776729270 heartbeat IPC: 0.302822 cumulative IPC: 0.296825 (Simulation time: 0 hr 10 min 19 sec) 
Heartbeat CPU 0 instructions: 330000000 cycles: 803597368 heartbeat IPC: 0.372189 cumulative IPC: 0.299461 (Simulation time: 0 hr 10 min 35 sec) 
Heartbeat CPU 0 instructions: 340000003 cycles: 837492660 heartbeat IPC: 0.295026 cumulative IPC: 0.299274 (Simulation time: 0 hr 10 min 52 sec) 
Heartbeat CPU 0 instructions: 350000001 cycles: 872040255 heartbeat IPC: 0.289456 cumulative IPC: 0.298869 (Simulation time: 0 hr 11 min 9 sec) 
Heartbeat CPU 0 instructions: 360000000 cycles: 913081800 heartbeat IPC: 0.243656 cumulative IPC: 0.296286 (Simulation time: 0 hr 11 min 27 sec) 
Heartbeat CPU 0 instructions: 370000000 cycles: 950994815 heartbeat IPC: 0.263762 cumulative IPC: 0.294939 (Simulation time: 0 hr 11 min 44 sec) 
Heartbeat CPU 0 instructions: 380000000 cycles: 978629591 heartbeat IPC: 0.361863 cumulative IPC: 0.2969 (Simulation time: 0 hr 12 min 1 sec) 
Heartbeat CPU 0 instructions: 390000002 cycles: 1013885391 heartbeat IPC: 0.283641 cumulative IPC: 0.296422 (Simulation time: 0 hr 12 min 18 sec) 
Heartbeat CPU 0 instructions: 400000002 cycles: 1047946349 heartbeat IPC: 0.293591 cumulative IPC: 0.296327 (Simulation time: 0 hr 12 min 35 sec) 
Heartbeat CPU 0 instructions: 410000000 cycles: 1079157090 heartbeat IPC: 0.320402 cumulative IPC: 0.297047 (Simulation time: 0 hr 12 min 52 sec) 
Heartbeat CPU 0 instructions: 420000001 cycles: 1111304047 heartbeat IPC: 0.311071 cumulative IPC: 0.297466 (Simulation time: 0 hr 13 min 9 sec) 
Heartbeat CPU 0 instructions: 430000000 cycles: 1141163784 heartbeat IPC: 0.334899 cumulative IPC: 0.298477 (Simulation time: 0 hr 13 min 26 sec) 
Heartbeat CPU 0 instructions: 440000000 cycles: 1182222096 heartbeat IPC: 0.243556 cumulative IPC: 0.296511 (Simulation time: 0 hr 13 min 43 sec) 
Heartbeat CPU 0 instructions: 450000000 cycles: 1222089568 heartbeat IPC: 0.250831 cumulative IPC: 0.294976 (Simulation time: 0 hr 14 min 0 sec) 
Heartbeat CPU 0 instructions: 460000000 cycles: 1258107805 heartbeat IPC: 0.277637 cumulative IPC: 0.294465 (Simulation time: 0 hr 14 min 18 sec) 
Heartbeat CPU 0 instructions: 470000000 cycles: 1290572709 heartbeat IPC: 0.308025 cumulative IPC: 0.294816 (Simulation time: 0 hr 14 min 35 sec) 
Heartbeat CPU 0 instructions: 480000002 cycles: 1318889492 heartbeat IPC: 0.353148 cumulative IPC: 0.296103 (Simulation time: 0 hr 14 min 52 sec) 
Heartbeat CPU 0 instructions: 490000000 cycles: 1345736106 heartbeat IPC: 0.372486 cumulative IPC: 0.297668 (Simulation time: 0 hr 15 min 8 sec) 
Heartbeat CPU 0 instructions: 500000001 cycles: 1372315660 heartbeat IPC: 0.376229 cumulative IPC: 0.29923 (Simulation time: 0 hr 15 min 25 sec) 
Heartbeat CPU 0 instructions: 510000001 cycles: 1397303561 heartbeat IPC: 0.400194 cumulative IPC: 0.301083 (Simulation time: 0 hr 15 min 41 sec) 
Heartbeat CPU 0 instructions: 520000002 cycles: 1424308823 heartbeat IPC: 0.370298 cumulative IPC: 0.302429 (Simulation time: 0 hr 15 min 58 sec) 
Heartbeat CPU 0 instructions: 530000002 cycles: 1453170863 heartbeat IPC: 0.346476 cumulative IPC: 0.303326 (Simulation time: 0 hr 16 min 14 sec) 
Heartbeat CPU 0 instructions: 540000003 cycles: 1482638150 heartbeat IPC: 0.339359 cumulative IPC: 0.304059 (Simulation time: 0 hr 16 min 31 sec) 
Heartbeat CPU 0 instructions: 550000000 cycles: 1520676033 heartbeat IPC: 0.262896 cumulative IPC: 0.303005 (Simulation time: 0 hr 16 min 49 sec) 
Heartbeat CPU 0 instructions: 560000003 cycles: 1562152577 heartbeat IPC: 0.2411 cumulative IPC: 0.301323 (Simulation time: 0 hr 17 min 6 sec) 
Heartbeat CPU 0 instructions: 570000002 cycles: 1602367573 heartbeat IPC: 0.248663 cumulative IPC: 0.299971 (Simulation time: 0 hr 17 min 24 sec) 
Heartbeat CPU 0 instructions: 580000001 cycles: 1629805264 heartbeat IPC: 0.364462 cumulative IPC: 0.301081 (Simulation time: 0 hr 17 min 41 sec) 
Heartbeat CPU 0 instructions: 590000000 cycles: 1656860301 heartbeat IPC: 0.369617 cumulative IPC: 0.302225 (Simulation time: 0 hr 17 min 58 sec) 
Heartbeat CPU 0 instructions: 600000001 cycles: 1685103755 heartbeat IPC: 0.354064 cumulative IPC: 0.303113 (Simulation time: 0 hr 18 min 15 sec) 
Heartbeat CPU 0 instructions: 610000001 cycles: 1711865360 heartbeat IPC: 0.37367 cumulative IPC: 0.304239 (Simulation time: 0 hr 18 min 31 sec) 
Heartbeat CPU 0 instructions: 620000000 cycles: 1737409805 heartbeat IPC: 0.391475 cumulative IPC: 0.305548 (Simulation time: 0 hr 18 min 47 sec) 
Heartbeat CPU 0 instructions: 630000003 cycles: 1763053789 heartbeat IPC: 0.389955 cumulative IPC: 0.306801 (Simulation time: 0 hr 19 min 4 sec) 
Heartbeat CPU 0 instructions: 640000001 cycles: 1789782877 heartbeat IPC: 0.374124 cumulative IPC: 0.307827 (Simulation time: 0 hr 19 min 20 sec) 
Heartbeat CPU 0 instructions: 650000000 cycles: 1816326183 heartbeat IPC: 0.376743 cumulative IPC: 0.308854 (Simulation time: 0 hr 19 min 37 sec) 
Heartbeat CPU 0 instructions: 660000000 cycles: 1842844838 heartbeat IPC: 0.377093 cumulative IPC: 0.309856 (Simulation time: 0 hr 19 min 54 sec) 
Heartbeat CPU 0 instructions: 670000000 cycles: 1871783529 heartbeat IPC: 0.345558 cumulative IPC: 0.310418 (Simulation time: 0 hr 20 min 11 sec) 
Heartbeat CPU 0 instructions: 680000001 cycles: 1897544056 heartbeat IPC: 0.388191 cumulative IPC: 0.311494 (Simulation time: 0 hr 20 min 27 sec) 
Heartbeat CPU 0 instructions: 690000000 cycles: 1935598000 heartbeat IPC: 0.262785 cumulative IPC: 0.310519 (Simulation time: 0 hr 20 min 44 sec) 
Heartbeat CPU 0 instructions: 700000001 cycles: 1975721371 heartbeat IPC: 0.249231 cumulative IPC: 0.309251 (Simulation time: 0 hr 21 min 1 sec) 
Heartbeat CPU 0 instructions: 710000000 cycles: 2014135313 heartbeat IPC: 0.260322 cumulative IPC: 0.308301 (Simulation time: 0 hr 21 min 19 sec) 
Heartbeat CPU 0 instructions: 720000001 cycles: 2050138034 heartbeat IPC: 0.277757 cumulative IPC: 0.307756 (Simulation time: 0 hr 21 min 36 sec) 
Heartbeat CPU 0 instructions: 730000001 cycles: 2092388180 heartbeat IPC: 0.236686 cumulative IPC: 0.306296 (Simulation time: 0 hr 21 min 53 sec) 
Heartbeat CPU 0 instructions: 740000000 cycles: 2130497888 heartbeat IPC: 0.2624 cumulative IPC: 0.305497 (Simulation time: 0 hr 22 min 11 sec) 
Heartbeat CPU 0 instructions: 750000000 cycles: 2166837716 heartbeat IPC: 0.27518 cumulative IPC: 0.30498 (Simulation time: 0 hr 22 min 28 sec) 
Heartbeat CPU 0 instructions: 760000001 cycles: 2207748513 heartbeat IPC: 0.244434 cumulative IPC: 0.30384 (Simulation time: 0 hr 22 min 45 sec) 
Heartbeat CPU 0 instructions: 770000000 cycles: 2251829734 heartbeat IPC: 0.226854 cumulative IPC: 0.302309 (Simulation time: 0 hr 23 min 3 sec) 
Heartbeat CPU 0 instructions: 780000000 cycles: 2294761865 heartbeat IPC: 0.232926 cumulative IPC: 0.30099 (Simulation time: 0 hr 23 min 21 sec) 
Heartbeat CPU 0 instructions: 790000001 cycles: 2338543134 heartbeat IPC: 0.228408 cumulative IPC: 0.29961 (Simulation time: 0 hr 23 min 38 sec) 
Heartbeat CPU 0 instructions: 800000000 cycles: 2366746770 heartbeat IPC: 0.354564 cumulative IPC: 0.300275 (Simulation time: 0 hr 23 min 55 sec) 
Heartbeat CPU 0 instructions: 810000001 cycles: 2397843120 heartbeat IPC: 0.321581 cumulative IPC: 0.300556 (Simulation time: 0 hr 24 min 12 sec) 
Heartbeat CPU 0 instructions: 820000001 cycles: 2423445439 heartbeat IPC: 0.39059 cumulative IPC: 0.301521 (Simulation time: 0 hr 24 min 28 sec) 
Heartbeat CPU 0 instructions: 830000000 cycles: 2451109236 heartbeat IPC: 0.361483 cumulative IPC: 0.302208 (Simulation time: 0 hr 24 min 45 sec) 
Heartbeat CPU 0 instructions: 840000000 cycles: 2479182521 heartbeat IPC: 0.356211 cumulative IPC: 0.302828 (Simulation time: 0 hr 25 min 2 sec) 
Heartbeat CPU 0 instructions: 850000002 cycles: 2513972948 heartbeat IPC: 0.287435 cumulative IPC: 0.302612 (Simulation time: 0 hr 25 min 19 sec) 
Heartbeat CPU 0 instructions: 860000001 cycles: 2543016557 heartbeat IPC: 0.34431 cumulative IPC: 0.303095 (Simulation time: 0 hr 25 min 36 sec) 
Heartbeat CPU 0 instructions: 870000001 cycles: 2574303264 heartbeat IPC: 0.319625 cumulative IPC: 0.303299 (Simulation time: 0 hr 25 min 54 sec) 
Heartbeat CPU 0 instructions: 880000000 cycles: 2600104710 heartbeat IPC: 0.387575 cumulative IPC: 0.304147 (Simulation time: 0 hr 26 min 10 sec) 
Heartbeat CPU 0 instructions: 890000003 cycles: 2627010181 heartbeat IPC: 0.371672 cumulative IPC: 0.304848 (Simulation time: 0 hr 26 min 27 sec) 
Heartbeat CPU 0 instructions: 900000002 cycles: 2654730084 heartbeat IPC: 0.360752 cumulative IPC: 0.305439 (Simulation time: 0 hr 26 min 44 sec) 
Heartbeat CPU 0 instructions: 910000000 cycles: 2680419498 heartbeat IPC: 0.389265 cumulative IPC: 0.306254 (Simulation time: 0 hr 27 min 0 sec) 
Heartbeat CPU 0 instructions: 920000000 cycles: 2707122678 heartbeat IPC: 0.374487 cumulative IPC: 0.306936 (Simulation time: 0 hr 27 min 17 sec) 
Heartbeat CPU 0 instructions: 930000000 cycles: 2735433600 heartbeat IPC: 0.353221 cumulative IPC: 0.307421 (Simulation time: 0 hr 27 min 34 sec) 
Heartbeat CPU 0 instructions: 940000003 cycles: 2765648594 heartbeat IPC: 0.330962 cumulative IPC: 0.307681 (Simulation time: 0 hr 27 min 51 sec) 
Heartbeat CPU 0 instructions: 950000003 cycles: 2811221172 heartbeat IPC: 0.21943 cumulative IPC: 0.306232 (Simulation time: 0 hr 28 min 8 sec) 
Heartbeat CPU 0 instructions: 960000003 cycles: 2856601336 heartbeat IPC: 0.220361 cumulative IPC: 0.304851 (Simulation time: 0 hr 28 min 26 sec) 
Heartbeat CPU 0 instructions: 970000001 cycles: 2902670616 heartbeat IPC: 0.217064 cumulative IPC: 0.303441 (Simulation time: 0 hr 28 min 44 sec) 
Heartbeat CPU 0 instructions: 980000003 cycles: 2949536617 heartbeat IPC: 0.213374 cumulative IPC: 0.301992 (Simulation time: 0 hr 29 min 2 sec) 
Heartbeat CPU 0 instructions: 990000000 cycles: 2995016216 heartbeat IPC: 0.219879 cumulative IPC: 0.30073 (Simulation time: 0 hr 29 min 20 sec) 
Heartbeat CPU 0 instructions: 1000000000 cycles: 3039504103 heartbeat IPC: 0.22478 cumulative IPC: 0.299605 (Simulation time: 0 hr 29 min 38 sec) 
Heartbeat CPU 0 instructions: 1010000003 cycles: 3087923336 heartbeat IPC: 0.20653 cumulative IPC: 0.298129 (Simulation time: 0 hr 29 min 56 sec) 
Heartbeat CPU 0 instructions: 1020000000 cycles: 3121974754 heartbeat IPC: 0.293673 cumulative IPC: 0.29808 (Simulation time: 0 hr 30 min 13 sec) 
Heartbeat CPU 0 instructions: 1030000000 cycles: 3154312921 heartbeat IPC: 0.309232 cumulative IPC: 0.298195 (Simulation time: 0 hr 30 min 30 sec) 
Heartbeat CPU 0 instructions: 1040000000 cycles: 3193321768 heartbeat IPC: 0.256352 cumulative IPC: 0.297678 (Simulation time: 0 hr 30 min 48 sec) 
Heartbeat CPU 0 instructions: 1050000000 cycles: 3222204060 heartbeat IPC: 0.346233 cumulative IPC: 0.298119 (Simulation time: 0 hr 31 min 5 sec) 
Heartbeat CPU 0 instructions: 1060000003 cycles: 3248314690 heartbeat IPC: 0.382986 cumulative IPC: 0.298808 (Simulation time: 0 hr 31 min 21 sec) 
Heartbeat CPU 0 instructions: 1070000000 cycles: 3275156258 heartbeat IPC: 0.372556 cumulative IPC: 0.299419 (Simulation time: 0 hr 31 min 38 sec) 
Heartbeat CPU 0 instructions: 1080000000 cycles: 3306085964 heartbeat IPC: 0.323314 cumulative IPC: 0.299645 (Simulation time: 0 hr 31 min 55 sec) 
Heartbeat CPU 0 instructions: 1090000001 cycles: 3343561331 heartbeat IPC: 0.266842 cumulative IPC: 0.299274 (Simulation time: 0 hr 32 min 13 sec) 
Heartbeat CPU 0 instructions: 1100000000 cycles: 3381769886 heartbeat IPC: 0.261721 cumulative IPC: 0.298845 (Simulation time: 0 hr 32 min 30 sec) 
Finished CPU 0 instructions: 1000000000 cycles: 3346217925 cumulative IPC: 0.298845 (Simulation time: 0 hr 32 min 30 sec) 

ChampSim completed all CPUs

Region of Interest Statistics

CPU 0 cumulative IPC: 0.298845 instructions: 1000000000 cycles: 3346217925
L1D TOTAL     ACCESS:  254647668  HIT:  225867131  MISS:   28780537
L1D LOAD      ACCESS:  212193348  HIT:  183792015  MISS:   28401333
L1D RFO       ACCESS:   42454320  HIT:   42075116  MISS:     379204
L1D PREFETCH  ACCESS:          0  HIT:          0  MISS:          0
L1D WRITEBACK ACCESS:          0  HIT:          0  MISS:          0
L1D PREFETCH  REQUESTED:          0  ISSUED:          0  USEFUL:          0  USELESS:          0
L1D AVERAGE MISS LATENCY: 55.8294 cycles
L1I TOTAL     ACCESS:  197698053  HIT:  197698041  MISS:         12
L1I LOAD      ACCESS:  197698053  HIT:  197698041  MISS:         12
L1I RFO       ACCESS:          0  HIT:          0  MISS:          0
L1I PREFETCH  ACCESS:          0  HIT:          0  MISS:          0
L1I WRITEBACK ACCESS:          0  HIT:          0  MISS:          0
L1I PREFETCH  REQUESTED:          0  ISSUED:          0  USEFUL:          0  USELESS:          0
L1I AVERAGE MISS LATENCY: 206.833 cycles
L2C TOTAL     ACCESS:   38246204  HIT:   17223248  MISS:   21022956
L2C LOAD      ACCESS:   28400841  HIT:    7542381  MISS:   20858460
L2C RFO       ACCESS:     379195  HIT:     218117  MISS:     161078
L2C PREFETCH  ACCESS:          0  HIT:          0  MISS:          0
L2C WRITEBACK ACCESS:    9466168  HIT:    9462750  MISS:       3418
L2C PREFETCH  REQUESTED:          0  ISSUED:          0  USEFUL:          0  USELESS:          0
L2C AVERAGE MISS LATENCY: 50.9707 cycles
LLC TOTAL     ACCESS:   28075846  HIT:   25567942  MISS:    2507904
LLC LOAD      ACCESS:   20858173  HIT:   18393094  MISS:    2465079
LLC RFO       ACCESS:     161076  HIT:     157488  MISS:       3588
LLC PREFETCH  ACCESS:          0  HIT:          0  MISS:          0
LLC WRITEBACK ACCESS:    7056597  HIT:    7017360  MISS:      39237
LLC PREFETCH  REQUESTED:          0  ISSUED:          0  USEFUL:          0  USELESS:          0
LLC AVERAGE MISS LATENCY: 160.617 cycles
Major fault: 0 Minor fault: 6231

DRAM Statistics
 CHANNEL 0
 RQ ROW_BUFFER_HIT:     315067  ROW_BUFFER_MISS:    2153546
 DBUS_CONGESTED:      78920
 WQ ROW_BUFFER_HIT:      37915  ROW_BUFFER_MISS:    1420774  FULL:          0

 AVG_CONGESTED_CYCLE: 5

CPU 0 Branch Prediction Accuracy: 72.3402% MPKI: 52.2267 Average ROB Occupancy at Mispredict: 5.04294

Branch types
NOT_BRANCH: 811181313 81.1181%
BRANCH_DIRECT_JUMP: 63895 0.0063895%
BRANCH_INDIRECT: 0 0%
BRANCH_CONDITIONAL: 188708919 18.8709%
BRANCH_DIRECT_CALL: 22746 0.0022746%
BRANCH_INDIRECT_CALL: 0 0%
BRANCH_RETURN: 22746 0.0022746%
BRANCH_OTHER: 0 0%

