
*** ChampSim Multicore Out-of-Order Simulator ***

Warmup Instructions: 100000000
Simulation Instructions: 1000000000
Number of CPUs: 1
LLC sets: 2048
LLC ways: 16
Off-chip DRAM Size: 4096 MB Channels: 1 Width: 64-bit Data Rate: 3200 MT/s

CPU 0 runs /scratch/user/kevin.weston/dpc3-traces/482.champsimtrace.xz
CPU 0 Bimodal branch predictor
Initialize RRPV
Initialize PRRIP state
Heartbeat CPU 0 instructions: 10000000 cycles: 3498270 heartbeat IPC: 2.85856 cumulative IPC: 2.85856 (Simulation time: 0 hr 0 min 19 sec) 
Heartbeat CPU 0 instructions: 20000002 cycles: 6993251 heartbeat IPC: 2.86125 cumulative IPC: 2.8599 (Simulation time: 0 hr 0 min 38 sec) 
Heartbeat CPU 0 instructions: 30000002 cycles: 10498023 heartbeat IPC: 2.85325 cumulative IPC: 2.85768 (Simulation time: 0 hr 0 min 57 sec) 
Heartbeat CPU 0 instructions: 40000001 cycles: 13989854 heartbeat IPC: 2.86383 cumulative IPC: 2.85922 (Simulation time: 0 hr 1 min 15 sec) 
Heartbeat CPU 0 instructions: 50000002 cycles: 17426654 heartbeat IPC: 2.90968 cumulative IPC: 2.86917 (Simulation time: 0 hr 1 min 34 sec) 
Heartbeat CPU 0 instructions: 60000003 cycles: 20901245 heartbeat IPC: 2.87804 cumulative IPC: 2.87064 (Simulation time: 0 hr 1 min 52 sec) 
Heartbeat CPU 0 instructions: 70000001 cycles: 24315735 heartbeat IPC: 2.92869 cumulative IPC: 2.87879 (Simulation time: 0 hr 2 min 10 sec) 
Heartbeat CPU 0 instructions: 80000002 cycles: 27745412 heartbeat IPC: 2.91573 cumulative IPC: 2.88336 (Simulation time: 0 hr 2 min 28 sec) 
Heartbeat CPU 0 instructions: 90000001 cycles: 31186877 heartbeat IPC: 2.90574 cumulative IPC: 2.88583 (Simulation time: 0 hr 2 min 46 sec) 
Heartbeat CPU 0 instructions: 100000000 cycles: 34636384 heartbeat IPC: 2.89896 cumulative IPC: 2.88714 (Simulation time: 0 hr 3 min 4 sec) 

Warmup complete CPU 0 instructions: 100000004 cycles: 34636385 (Simulation time: 0 hr 3 min 4 sec) 

Heartbeat CPU 0 instructions: 110000000 cycles: 47329953 heartbeat IPC: 0.7878 cumulative IPC: 0.7878 (Simulation time: 0 hr 3 min 24 sec) 
Heartbeat CPU 0 instructions: 120000001 cycles: 60548123 heartbeat IPC: 0.756534 cumulative IPC: 0.771851 (Simulation time: 0 hr 3 min 44 sec) 
Heartbeat CPU 0 instructions: 130000000 cycles: 74082629 heartbeat IPC: 0.738852 cumulative IPC: 0.760529 (Simulation time: 0 hr 4 min 5 sec) 
Heartbeat CPU 0 instructions: 140000003 cycles: 87709746 heartbeat IPC: 0.733831 cumulative IPC: 0.753674 (Simulation time: 0 hr 4 min 26 sec) 
Heartbeat CPU 0 instructions: 150000002 cycles: 102170461 heartbeat IPC: 0.691529 cumulative IPC: 0.740367 (Simulation time: 0 hr 4 min 47 sec) 
Heartbeat CPU 0 instructions: 160000001 cycles: 116255552 heartbeat IPC: 0.70997 cumulative IPC: 0.735121 (Simulation time: 0 hr 5 min 8 sec) 
Heartbeat CPU 0 instructions: 170000003 cycles: 130323140 heartbeat IPC: 0.710854 cumulative IPC: 0.731554 (Simulation time: 0 hr 5 min 29 sec) 
Heartbeat CPU 0 instructions: 180000002 cycles: 144216724 heartbeat IPC: 0.719757 cumulative IPC: 0.730058 (Simulation time: 0 hr 5 min 50 sec) 
Heartbeat CPU 0 instructions: 190000003 cycles: 158118216 heartbeat IPC: 0.719347 cumulative IPC: 0.728852 (Simulation time: 0 hr 6 min 11 sec) 
Heartbeat CPU 0 instructions: 200000000 cycles: 172169385 heartbeat IPC: 0.711684 cumulative IPC: 0.727098 (Simulation time: 0 hr 6 min 33 sec) 
Heartbeat CPU 0 instructions: 210000000 cycles: 186308256 heartbeat IPC: 0.70727 cumulative IPC: 0.72525 (Simulation time: 0 hr 6 min 54 sec) 
Heartbeat CPU 0 instructions: 220000000 cycles: 198992830 heartbeat IPC: 0.788359 cumulative IPC: 0.73012 (Simulation time: 0 hr 7 min 14 sec) 
Heartbeat CPU 0 instructions: 230000003 cycles: 212019258 heartbeat IPC: 0.76767 cumulative IPC: 0.732878 (Simulation time: 0 hr 7 min 34 sec) 
Heartbeat CPU 0 instructions: 240000003 cycles: 224613535 heartbeat IPC: 0.794011 cumulative IPC: 0.736931 (Simulation time: 0 hr 7 min 54 sec) 
Heartbeat CPU 0 instructions: 250000001 cycles: 237108204 heartbeat IPC: 0.800341 cumulative IPC: 0.740844 (Simulation time: 0 hr 8 min 15 sec) 
Heartbeat CPU 0 instructions: 260000000 cycles: 249700726 heartbeat IPC: 0.794122 cumulative IPC: 0.743963 (Simulation time: 0 hr 8 min 35 sec) 
Heartbeat CPU 0 instructions: 270000002 cycles: 263714906 heartbeat IPC: 0.713563 cumulative IPC: 0.742104 (Simulation time: 0 hr 8 min 56 sec) 
Heartbeat CPU 0 instructions: 280000000 cycles: 276429754 heartbeat IPC: 0.786482 cumulative IPC: 0.744437 (Simulation time: 0 hr 9 min 16 sec) 
Heartbeat CPU 0 instructions: 290000002 cycles: 290246961 heartbeat IPC: 0.723735 cumulative IPC: 0.743318 (Simulation time: 0 hr 9 min 37 sec) 
Heartbeat CPU 0 instructions: 300000001 cycles: 303510175 heartbeat IPC: 0.753965 cumulative IPC: 0.743843 (Simulation time: 0 hr 9 min 57 sec) 
Heartbeat CPU 0 instructions: 310000000 cycles: 316915181 heartbeat IPC: 0.74599 cumulative IPC: 0.743945 (Simulation time: 0 hr 10 min 18 sec) 
Heartbeat CPU 0 instructions: 320000000 cycles: 330063232 heartbeat IPC: 0.760569 cumulative IPC: 0.744685 (Simulation time: 0 hr 10 min 38 sec) 
Heartbeat CPU 0 instructions: 330000000 cycles: 343994933 heartbeat IPC: 0.717787 cumulative IPC: 0.743474 (Simulation time: 0 hr 10 min 59 sec) 
Heartbeat CPU 0 instructions: 340000000 cycles: 358088949 heartbeat IPC: 0.709521 cumulative IPC: 0.741994 (Simulation time: 0 hr 11 min 20 sec) 
Heartbeat CPU 0 instructions: 350000003 cycles: 372248899 heartbeat IPC: 0.706217 cumulative IPC: 0.740494 (Simulation time: 0 hr 11 min 41 sec) 
Heartbeat CPU 0 instructions: 360000001 cycles: 386503870 heartbeat IPC: 0.70151 cumulative IPC: 0.738915 (Simulation time: 0 hr 12 min 3 sec) 
Heartbeat CPU 0 instructions: 370000001 cycles: 400772042 heartbeat IPC: 0.700861 cumulative IPC: 0.737432 (Simulation time: 0 hr 12 min 24 sec) 
Heartbeat CPU 0 instructions: 380000003 cycles: 415097642 heartbeat IPC: 0.698051 cumulative IPC: 0.735949 (Simulation time: 0 hr 12 min 45 sec) 
Heartbeat CPU 0 instructions: 390000000 cycles: 430028312 heartbeat IPC: 0.669762 cumulative IPC: 0.733449 (Simulation time: 0 hr 13 min 6 sec) 
Heartbeat CPU 0 instructions: 400000000 cycles: 444864378 heartbeat IPC: 0.674033 cumulative IPC: 0.731301 (Simulation time: 0 hr 13 min 28 sec) 
Heartbeat CPU 0 instructions: 410000001 cycles: 459405400 heartbeat IPC: 0.68771 cumulative IPC: 0.729808 (Simulation time: 0 hr 13 min 50 sec) 
Heartbeat CPU 0 instructions: 420000000 cycles: 473284342 heartbeat IPC: 0.720516 cumulative IPC: 0.729514 (Simulation time: 0 hr 14 min 10 sec) 
Heartbeat CPU 0 instructions: 430000002 cycles: 487821373 heartbeat IPC: 0.687899 cumulative IPC: 0.728179 (Simulation time: 0 hr 14 min 32 sec) 
Heartbeat CPU 0 instructions: 440000000 cycles: 503195456 heartbeat IPC: 0.650445 cumulative IPC: 0.725629 (Simulation time: 0 hr 14 min 54 sec) 
Heartbeat CPU 0 instructions: 450000000 cycles: 517969266 heartbeat IPC: 0.676873 cumulative IPC: 0.724139 (Simulation time: 0 hr 15 min 15 sec) 
Heartbeat CPU 0 instructions: 460000000 cycles: 532580830 heartbeat IPC: 0.684389 cumulative IPC: 0.722972 (Simulation time: 0 hr 15 min 37 sec) 
Heartbeat CPU 0 instructions: 470000003 cycles: 547723574 heartbeat IPC: 0.660383 cumulative IPC: 0.721125 (Simulation time: 0 hr 15 min 58 sec) 
Heartbeat CPU 0 instructions: 480000000 cycles: 562668313 heartbeat IPC: 0.669132 cumulative IPC: 0.719653 (Simulation time: 0 hr 16 min 20 sec) 
Heartbeat CPU 0 instructions: 490000001 cycles: 577443008 heartbeat IPC: 0.676833 cumulative IPC: 0.718488 (Simulation time: 0 hr 16 min 42 sec) 
Heartbeat CPU 0 instructions: 500000003 cycles: 592273990 heartbeat IPC: 0.674264 cumulative IPC: 0.717312 (Simulation time: 0 hr 17 min 3 sec) 
Heartbeat CPU 0 instructions: 510000003 cycles: 607598976 heartbeat IPC: 0.652529 cumulative IPC: 0.715579 (Simulation time: 0 hr 17 min 25 sec) 
Heartbeat CPU 0 instructions: 520000001 cycles: 622423795 heartbeat IPC: 0.674544 cumulative IPC: 0.714544 (Simulation time: 0 hr 17 min 47 sec) 
Heartbeat CPU 0 instructions: 530000002 cycles: 637298118 heartbeat IPC: 0.6723 cumulative IPC: 0.713501 (Simulation time: 0 hr 18 min 9 sec) 
Heartbeat CPU 0 instructions: 540000001 cycles: 652625421 heartbeat IPC: 0.65243 cumulative IPC: 0.711987 (Simulation time: 0 hr 18 min 31 sec) 
Heartbeat CPU 0 instructions: 550000000 cycles: 667459947 heartbeat IPC: 0.674103 cumulative IPC: 0.711099 (Simulation time: 0 hr 18 min 52 sec) 
Heartbeat CPU 0 instructions: 560000001 cycles: 682598504 heartbeat IPC: 0.660565 cumulative IPC: 0.709918 (Simulation time: 0 hr 19 min 14 sec) 
Heartbeat CPU 0 instructions: 570000003 cycles: 697691537 heartbeat IPC: 0.662557 cumulative IPC: 0.70884 (Simulation time: 0 hr 19 min 36 sec) 
Heartbeat CPU 0 instructions: 580000000 cycles: 712497337 heartbeat IPC: 0.675411 cumulative IPC: 0.70811 (Simulation time: 0 hr 19 min 57 sec) 
Heartbeat CPU 0 instructions: 590000002 cycles: 727944527 heartbeat IPC: 0.647367 cumulative IPC: 0.706756 (Simulation time: 0 hr 20 min 19 sec) 
Heartbeat CPU 0 instructions: 600000000 cycles: 742776562 heartbeat IPC: 0.674216 cumulative IPC: 0.706075 (Simulation time: 0 hr 20 min 41 sec) 
Heartbeat CPU 0 instructions: 610000000 cycles: 756793910 heartbeat IPC: 0.713402 cumulative IPC: 0.706217 (Simulation time: 0 hr 21 min 2 sec) 
Heartbeat CPU 0 instructions: 620000003 cycles: 772216798 heartbeat IPC: 0.648387 cumulative IPC: 0.705008 (Simulation time: 0 hr 21 min 24 sec) 
Heartbeat CPU 0 instructions: 630000002 cycles: 787123062 heartbeat IPC: 0.670859 cumulative IPC: 0.704331 (Simulation time: 0 hr 21 min 45 sec) 
Heartbeat CPU 0 instructions: 640000000 cycles: 801756170 heartbeat IPC: 0.683382 cumulative IPC: 0.703932 (Simulation time: 0 hr 22 min 7 sec) 
Heartbeat CPU 0 instructions: 650000000 cycles: 817179145 heartbeat IPC: 0.648383 cumulative IPC: 0.702837 (Simulation time: 0 hr 22 min 29 sec) 
Heartbeat CPU 0 instructions: 660000000 cycles: 832076202 heartbeat IPC: 0.671274 cumulative IPC: 0.702247 (Simulation time: 0 hr 22 min 51 sec) 
Heartbeat CPU 0 instructions: 670000003 cycles: 846635325 heartbeat IPC: 0.686855 cumulative IPC: 0.701971 (Simulation time: 0 hr 23 min 12 sec) 
Heartbeat CPU 0 instructions: 680000001 cycles: 862178340 heartbeat IPC: 0.643376 cumulative IPC: 0.700871 (Simulation time: 0 hr 23 min 34 sec) 
Heartbeat CPU 0 instructions: 690000000 cycles: 876787341 heartbeat IPC: 0.684509 cumulative IPC: 0.700587 (Simulation time: 0 hr 23 min 55 sec) 
Heartbeat CPU 0 instructions: 700000001 cycles: 891387179 heartbeat IPC: 0.684939 cumulative IPC: 0.70032 (Simulation time: 0 hr 24 min 17 sec) 
Heartbeat CPU 0 instructions: 710000003 cycles: 905761216 heartbeat IPC: 0.695699 cumulative IPC: 0.700244 (Simulation time: 0 hr 24 min 38 sec) 
Heartbeat CPU 0 instructions: 720000000 cycles: 921277580 heartbeat IPC: 0.644481 cumulative IPC: 0.699268 (Simulation time: 0 hr 25 min 0 sec) 
Heartbeat CPU 0 instructions: 730000001 cycles: 935768297 heartbeat IPC: 0.690097 cumulative IPC: 0.699121 (Simulation time: 0 hr 25 min 22 sec) 
Heartbeat CPU 0 instructions: 740000000 cycles: 950255006 heartbeat IPC: 0.690288 cumulative IPC: 0.698981 (Simulation time: 0 hr 25 min 43 sec) 
Heartbeat CPU 0 instructions: 750000000 cycles: 964745945 heartbeat IPC: 0.690086 cumulative IPC: 0.698842 (Simulation time: 0 hr 26 min 4 sec) 
Heartbeat CPU 0 instructions: 760000003 cycles: 979074636 heartbeat IPC: 0.697901 cumulative IPC: 0.698828 (Simulation time: 0 hr 26 min 26 sec) 
Heartbeat CPU 0 instructions: 770000000 cycles: 992539374 heartbeat IPC: 0.74268 cumulative IPC: 0.699445 (Simulation time: 0 hr 26 min 46 sec) 
Heartbeat CPU 0 instructions: 780000000 cycles: 1006794968 heartbeat IPC: 0.701479 cumulative IPC: 0.699474 (Simulation time: 0 hr 27 min 7 sec) 
Heartbeat CPU 0 instructions: 790000002 cycles: 1021069593 heartbeat IPC: 0.700544 cumulative IPC: 0.69949 (Simulation time: 0 hr 27 min 29 sec) 
Heartbeat CPU 0 instructions: 800000002 cycles: 1035340583 heartbeat IPC: 0.700722 cumulative IPC: 0.699507 (Simulation time: 0 hr 27 min 50 sec) 
Heartbeat CPU 0 instructions: 810000001 cycles: 1049604215 heartbeat IPC: 0.701084 cumulative IPC: 0.69953 (Simulation time: 0 hr 28 min 11 sec) 
Heartbeat CPU 0 instructions: 820000001 cycles: 1063667921 heartbeat IPC: 0.71105 cumulative IPC: 0.699687 (Simulation time: 0 hr 28 min 32 sec) 
Heartbeat CPU 0 instructions: 830000003 cycles: 1077715553 heartbeat IPC: 0.711864 cumulative IPC: 0.699851 (Simulation time: 0 hr 28 min 53 sec) 
Heartbeat CPU 0 instructions: 840000001 cycles: 1091343837 heartbeat IPC: 0.733768 cumulative IPC: 0.700288 (Simulation time: 0 hr 29 min 14 sec) 
Heartbeat CPU 0 instructions: 850000002 cycles: 1104575144 heartbeat IPC: 0.755783 cumulative IPC: 0.700975 (Simulation time: 0 hr 29 min 34 sec) 
Heartbeat CPU 0 instructions: 860000003 cycles: 1118680129 heartbeat IPC: 0.708969 cumulative IPC: 0.701079 (Simulation time: 0 hr 29 min 55 sec) 
Heartbeat CPU 0 instructions: 870000003 cycles: 1132557142 heartbeat IPC: 0.720616 cumulative IPC: 0.701326 (Simulation time: 0 hr 30 min 16 sec) 
Heartbeat CPU 0 instructions: 880000000 cycles: 1145748656 heartbeat IPC: 0.758063 cumulative IPC: 0.701999 (Simulation time: 0 hr 30 min 36 sec) 
Heartbeat CPU 0 instructions: 890000000 cycles: 1158713038 heartbeat IPC: 0.771344 cumulative IPC: 0.702799 (Simulation time: 0 hr 30 min 57 sec) 
Heartbeat CPU 0 instructions: 900000003 cycles: 1172691206 heartbeat IPC: 0.715402 cumulative IPC: 0.702954 (Simulation time: 0 hr 31 min 18 sec) 
Heartbeat CPU 0 instructions: 910000003 cycles: 1186620461 heartbeat IPC: 0.717914 cumulative IPC: 0.703135 (Simulation time: 0 hr 31 min 39 sec) 
Heartbeat CPU 0 instructions: 920000000 cycles: 1200300694 heartbeat IPC: 0.730981 cumulative IPC: 0.703462 (Simulation time: 0 hr 32 min 0 sec) 
Heartbeat CPU 0 instructions: 930000001 cycles: 1213325374 heartbeat IPC: 0.767773 cumulative IPC: 0.704172 (Simulation time: 0 hr 32 min 20 sec) 
Heartbeat CPU 0 instructions: 940000002 cycles: 1227385982 heartbeat IPC: 0.711207 cumulative IPC: 0.704255 (Simulation time: 0 hr 32 min 41 sec) 
Heartbeat CPU 0 instructions: 950000002 cycles: 1241228494 heartbeat IPC: 0.722412 cumulative IPC: 0.704463 (Simulation time: 0 hr 33 min 2 sec) 
Heartbeat CPU 0 instructions: 960000003 cycles: 1254472044 heartbeat IPC: 0.755085 cumulative IPC: 0.705013 (Simulation time: 0 hr 33 min 22 sec) 
Heartbeat CPU 0 instructions: 970000001 cycles: 1267838395 heartbeat IPC: 0.748147 cumulative IPC: 0.705481 (Simulation time: 0 hr 33 min 43 sec) 
Heartbeat CPU 0 instructions: 980000003 cycles: 1281037119 heartbeat IPC: 0.757649 cumulative IPC: 0.706033 (Simulation time: 0 hr 34 min 3 sec) 
Heartbeat CPU 0 instructions: 990000000 cycles: 1294205663 heartbeat IPC: 0.759385 cumulative IPC: 0.706591 (Simulation time: 0 hr 34 min 24 sec) 
Heartbeat CPU 0 instructions: 1000000000 cycles: 1307545274 heartbeat IPC: 0.749647 cumulative IPC: 0.707042 (Simulation time: 0 hr 34 min 44 sec) 
Heartbeat CPU 0 instructions: 1010000002 cycles: 1321493975 heartbeat IPC: 0.716913 cumulative IPC: 0.707149 (Simulation time: 0 hr 35 min 5 sec) 
Heartbeat CPU 0 instructions: 1020000000 cycles: 1335244682 heartbeat IPC: 0.727235 cumulative IPC: 0.707361 (Simulation time: 0 hr 35 min 26 sec) 
Heartbeat CPU 0 instructions: 1030000001 cycles: 1348088634 heartbeat IPC: 0.778577 cumulative IPC: 0.708058 (Simulation time: 0 hr 35 min 46 sec) 
Heartbeat CPU 0 instructions: 1040000001 cycles: 1362089889 heartbeat IPC: 0.714222 cumulative IPC: 0.708123 (Simulation time: 0 hr 36 min 7 sec) 
Heartbeat CPU 0 instructions: 1050000000 cycles: 1375950948 heartbeat IPC: 0.721446 cumulative IPC: 0.70826 (Simulation time: 0 hr 36 min 28 sec) 
Heartbeat CPU 0 instructions: 1060000000 cycles: 1389444904 heartbeat IPC: 0.741073 cumulative IPC: 0.708587 (Simulation time: 0 hr 36 min 49 sec) 
Heartbeat CPU 0 instructions: 1070000002 cycles: 1403052417 heartbeat IPC: 0.734888 cumulative IPC: 0.708849 (Simulation time: 0 hr 37 min 10 sec) 
Heartbeat CPU 0 instructions: 1080000001 cycles: 1416041727 heartbeat IPC: 0.769864 cumulative IPC: 0.709422 (Simulation time: 0 hr 37 min 30 sec) 
Heartbeat CPU 0 instructions: 1090000001 cycles: 1430232775 heartbeat IPC: 0.70467 cumulative IPC: 0.709374 (Simulation time: 0 hr 37 min 51 sec) 
Heartbeat CPU 0 instructions: 1100000000 cycles: 1443733356 heartbeat IPC: 0.740709 cumulative IPC: 0.709674 (Simulation time: 0 hr 38 min 12 sec) 
Finished CPU 0 instructions: 1000000001 cycles: 1409096975 cumulative IPC: 0.709674 (Simulation time: 0 hr 38 min 12 sec) 

ChampSim completed all CPUs

Region of Interest Statistics

CPU 0 cumulative IPC: 0.709674 instructions: 1000000001 cycles: 1409096975
L1D TOTAL     ACCESS:  147574168  HIT:  132680827  MISS:   14893341
L1D LOAD      ACCESS:  129659835  HIT:  115304324  MISS:   14355511
L1D RFO       ACCESS:   17914333  HIT:   17376503  MISS:     537830
L1D PREFETCH  ACCESS:          0  HIT:          0  MISS:          0
L1D WRITEBACK ACCESS:          0  HIT:          0  MISS:          0
L1D PREFETCH  REQUESTED:          0  ISSUED:          0  USEFUL:          0  USELESS:          0
L1D AVERAGE MISS LATENCY: 112.535 cycles
L1I TOTAL     ACCESS:  210035665  HIT:  210034987  MISS:        678
L1I LOAD      ACCESS:  210035665  HIT:  210034987  MISS:        678
L1I RFO       ACCESS:          0  HIT:          0  MISS:          0
L1I PREFETCH  ACCESS:          0  HIT:          0  MISS:          0
L1I WRITEBACK ACCESS:          0  HIT:          0  MISS:          0
L1I PREFETCH  REQUESTED:          0  ISSUED:          0  USEFUL:          0  USELESS:          0
L1I AVERAGE MISS LATENCY: 215.19 cycles
L2C TOTAL     ACCESS:   15841423  HIT:    3029172  MISS:   12812251
L2C LOAD      ACCESS:   14356139  HIT:    2000193  MISS:   12355946
L2C RFO       ACCESS:     537787  HIT:      83933  MISS:     453854
L2C PREFETCH  ACCESS:          0  HIT:          0  MISS:          0
L2C WRITEBACK ACCESS:     947497  HIT:     945046  MISS:       2451
L2C PREFETCH  REQUESTED:          0  ISSUED:          0  USEFUL:          0  USELESS:          0
L2C AVERAGE MISS LATENCY: 112.637 cycles
LLC TOTAL     ACCESS:   13617282  HIT:    5019865  MISS:    8597417
LLC LOAD      ACCESS:   12355926  HIT:    3801921  MISS:    8554005
LLC RFO       ACCESS:     453853  HIT:     433526  MISS:      20327
LLC PREFETCH  ACCESS:          0  HIT:          0  MISS:          0
LLC WRITEBACK ACCESS:     807503  HIT:     784418  MISS:      23085
LLC PREFETCH  REQUESTED:          0  ISSUED:          0  USEFUL:          0  USELESS:          0
LLC AVERAGE MISS LATENCY: 122.544 cycles
Major fault: 0 Minor fault: 4441
==============================
Perceptron RRIP Stats:
   Num Updates: 14035947
   Num Trains:  60374
==============================
perceptron #0: -25 -3 11 3 7 -5 -1 -5 9 5 -1 1 -5 1 3 -3 5 -1 1 -3 -1 -1 -1 17 17 17 -17 

perceptron #1: -27 1 9 1 9 -7 -1 -7 9 3 -5 1 -1 -3 1 -3 -3 -1 -3 1 1 -3 3 17 17 -17 -17 

perceptron #2: -17 -3 13 5 5 -3 1 -1 9 7 -7 1 1 1 -1 -3 5 1 -1 1 1 -1 -1 13 -13 13 -13 

perceptron #3: -26 -6 12 2 6 0 -2 -6 12 4 -4 2 -8 2 -2 -2 6 4 2 -2 0 -2 -2 16 -16 -16 -16 

perceptron #4: -21 3 1 -3 9 -3 7 -3 15 7 -9 7 3 3 1 5 5 1 1 -1 -1 1 -1 -19 19 19 -19 

perceptron #5: -15 1 7 -1 7 -1 1 -5 11 7 -5 3 -1 5 5 3 3 3 -3 -1 -3 -1 1 -15 15 -15 -15 

perceptron #6: -26 6 10 2 12 -6 -2 -8 8 8 -8 2 -4 10 2 -2 -2 6 2 0 0 0 4 -20 -20 20 -20 

perceptron #7: -29 -9 13 3 7 -5 3 -3 7 1 -9 5 1 1 -1 -3 1 1 3 -3 -3 -1 -3 -19 -19 -19 -19 


DRAM Statistics
 CHANNEL 0
 RQ ROW_BUFFER_HIT:    6152281  ROW_BUFFER_MISS:    2422036
 DBUS_CONGESTED:     286658
 WQ ROW_BUFFER_HIT:      29346  ROW_BUFFER_MISS:      41124  FULL:          0

 AVG_CONGESTED_CYCLE: 5

CPU 0 Branch Prediction Accuracy: 95.5612% MPKI: 4.19749 Average ROB Occupancy at Mispredict: 142.118

Branch types
NOT_BRANCH: 905436987 90.5437%
BRANCH_DIRECT_JUMP: 1644011 0.164401%
BRANCH_INDIRECT: 0 0%
BRANCH_CONDITIONAL: 88615621 8.86156%
BRANCH_DIRECT_CALL: 2151557 0.215156%
BRANCH_INDIRECT_CALL: 112 1.12e-05%
BRANCH_RETURN: 2151669 0.215167%
BRANCH_OTHER: 0 0%

