
*** ChampSim Multicore Out-of-Order Simulator ***

Warmup Instructions: 100000000
Simulation Instructions: 1000000000
Number of CPUs: 1
LLC sets: 2048
LLC ways: 16
Off-chip DRAM Size: 4096 MB Channels: 1 Width: 64-bit Data Rate: 3200 MT/s

CPU 0 runs /scratch/user/kevin.weston/dpc3-traces/482.champsimtrace.xz
CPU 0 Bimodal branch predictor
Initialize RRPV
Initialize PRRIP state
Heartbeat CPU 0 instructions: 10000000 cycles: 3498210 heartbeat IPC: 2.8586 cumulative IPC: 2.8586 (Simulation time: 0 hr 0 min 19 sec) 
Heartbeat CPU 0 instructions: 20000002 cycles: 6993401 heartbeat IPC: 2.86107 cumulative IPC: 2.85984 (Simulation time: 0 hr 0 min 37 sec) 
Heartbeat CPU 0 instructions: 30000002 cycles: 10498686 heartbeat IPC: 2.85284 cumulative IPC: 2.8575 (Simulation time: 0 hr 0 min 56 sec) 
Heartbeat CPU 0 instructions: 40000001 cycles: 13990844 heartbeat IPC: 2.86356 cumulative IPC: 2.85901 (Simulation time: 0 hr 1 min 15 sec) 
Heartbeat CPU 0 instructions: 50000002 cycles: 17427534 heartbeat IPC: 2.90978 cumulative IPC: 2.86902 (Simulation time: 0 hr 1 min 34 sec) 
Heartbeat CPU 0 instructions: 60000003 cycles: 20902041 heartbeat IPC: 2.87811 cumulative IPC: 2.87053 (Simulation time: 0 hr 1 min 52 sec) 
Heartbeat CPU 0 instructions: 70000001 cycles: 24316313 heartbeat IPC: 2.92888 cumulative IPC: 2.87873 (Simulation time: 0 hr 2 min 10 sec) 
Heartbeat CPU 0 instructions: 80000002 cycles: 27745750 heartbeat IPC: 2.91593 cumulative IPC: 2.88332 (Simulation time: 0 hr 2 min 28 sec) 
Heartbeat CPU 0 instructions: 90000001 cycles: 31187252 heartbeat IPC: 2.90571 cumulative IPC: 2.88579 (Simulation time: 0 hr 2 min 46 sec) 
Heartbeat CPU 0 instructions: 100000000 cycles: 34636812 heartbeat IPC: 2.89892 cumulative IPC: 2.8871 (Simulation time: 0 hr 3 min 5 sec) 

Warmup complete CPU 0 instructions: 100000004 cycles: 34636813 (Simulation time: 0 hr 3 min 5 sec) 

Heartbeat CPU 0 instructions: 110000000 cycles: 47373189 heartbeat IPC: 0.785153 cumulative IPC: 0.785152 (Simulation time: 0 hr 3 min 25 sec) 
Heartbeat CPU 0 instructions: 120000001 cycles: 60445011 heartbeat IPC: 0.765004 cumulative IPC: 0.774947 (Simulation time: 0 hr 3 min 45 sec) 
Heartbeat CPU 0 instructions: 130000000 cycles: 73867605 heartbeat IPC: 0.745012 cumulative IPC: 0.764705 (Simulation time: 0 hr 4 min 5 sec) 
Heartbeat CPU 0 instructions: 140000003 cycles: 87344485 heartbeat IPC: 0.742012 cumulative IPC: 0.758903 (Simulation time: 0 hr 4 min 26 sec) 
Heartbeat CPU 0 instructions: 150000002 cycles: 101770418 heartbeat IPC: 0.693196 cumulative IPC: 0.744783 (Simulation time: 0 hr 4 min 48 sec) 
Heartbeat CPU 0 instructions: 160000001 cycles: 115910590 heartbeat IPC: 0.707205 cumulative IPC: 0.738245 (Simulation time: 0 hr 5 min 9 sec) 
Heartbeat CPU 0 instructions: 170000000 cycles: 129939915 heartbeat IPC: 0.712793 cumulative IPC: 0.734499 (Simulation time: 0 hr 5 min 30 sec) 
Heartbeat CPU 0 instructions: 180000002 cycles: 143806648 heartbeat IPC: 0.721151 cumulative IPC: 0.732803 (Simulation time: 0 hr 5 min 50 sec) 
Heartbeat CPU 0 instructions: 190000000 cycles: 157785007 heartbeat IPC: 0.715391 cumulative IPC: 0.730827 (Simulation time: 0 hr 6 min 11 sec) 
Heartbeat CPU 0 instructions: 200000000 cycles: 171782929 heartbeat IPC: 0.714392 cumulative IPC: 0.729149 (Simulation time: 0 hr 6 min 32 sec) 
Heartbeat CPU 0 instructions: 210000000 cycles: 185892017 heartbeat IPC: 0.708763 cumulative IPC: 0.727248 (Simulation time: 0 hr 6 min 54 sec) 
Heartbeat CPU 0 instructions: 220000000 cycles: 198626940 heartbeat IPC: 0.785242 cumulative IPC: 0.731751 (Simulation time: 0 hr 7 min 13 sec) 
Heartbeat CPU 0 instructions: 230000003 cycles: 211650370 heartbeat IPC: 0.767847 cumulative IPC: 0.734407 (Simulation time: 0 hr 7 min 34 sec) 
Heartbeat CPU 0 instructions: 240000003 cycles: 224059928 heartbeat IPC: 0.80583 cumulative IPC: 0.739086 (Simulation time: 0 hr 7 min 54 sec) 
Heartbeat CPU 0 instructions: 250000001 cycles: 236394293 heartbeat IPC: 0.810743 cumulative IPC: 0.743467 (Simulation time: 0 hr 8 min 14 sec) 
Heartbeat CPU 0 instructions: 260000000 cycles: 248805287 heartbeat IPC: 0.805737 cumulative IPC: 0.747075 (Simulation time: 0 hr 8 min 34 sec) 
Heartbeat CPU 0 instructions: 270000002 cycles: 262813307 heartbeat IPC: 0.713877 cumulative IPC: 0.745037 (Simulation time: 0 hr 8 min 55 sec) 
Heartbeat CPU 0 instructions: 280000000 cycles: 275446402 heartbeat IPC: 0.791571 cumulative IPC: 0.747479 (Simulation time: 0 hr 9 min 15 sec) 
Heartbeat CPU 0 instructions: 290000002 cycles: 289047752 heartbeat IPC: 0.735221 cumulative IPC: 0.746823 (Simulation time: 0 hr 9 min 36 sec) 
Heartbeat CPU 0 instructions: 300000001 cycles: 302254888 heartbeat IPC: 0.757166 cumulative IPC: 0.747334 (Simulation time: 0 hr 9 min 56 sec) 
Heartbeat CPU 0 instructions: 310000000 cycles: 315629561 heartbeat IPC: 0.747682 cumulative IPC: 0.74735 (Simulation time: 0 hr 10 min 16 sec) 
Heartbeat CPU 0 instructions: 320000000 cycles: 328747973 heartbeat IPC: 0.762287 cumulative IPC: 0.748016 (Simulation time: 0 hr 10 min 37 sec) 
Heartbeat CPU 0 instructions: 330000000 cycles: 342557131 heartbeat IPC: 0.724157 cumulative IPC: 0.746946 (Simulation time: 0 hr 10 min 57 sec) 
Heartbeat CPU 0 instructions: 340000000 cycles: 356590123 heartbeat IPC: 0.712606 cumulative IPC: 0.74545 (Simulation time: 0 hr 11 min 18 sec) 
Heartbeat CPU 0 instructions: 350000003 cycles: 370719912 heartbeat IPC: 0.707725 cumulative IPC: 0.743864 (Simulation time: 0 hr 11 min 39 sec) 
Heartbeat CPU 0 instructions: 360000001 cycles: 384963884 heartbeat IPC: 0.702051 cumulative IPC: 0.742164 (Simulation time: 0 hr 12 min 0 sec) 
Heartbeat CPU 0 instructions: 370000001 cycles: 399263574 heartbeat IPC: 0.699316 cumulative IPC: 0.740483 (Simulation time: 0 hr 12 min 21 sec) 
Heartbeat CPU 0 instructions: 380000003 cycles: 413623943 heartbeat IPC: 0.696361 cumulative IPC: 0.738811 (Simulation time: 0 hr 12 min 42 sec) 
Heartbeat CPU 0 instructions: 390000000 cycles: 428571096 heartbeat IPC: 0.669024 cumulative IPC: 0.736163 (Simulation time: 0 hr 13 min 4 sec) 
Heartbeat CPU 0 instructions: 400000000 cycles: 443566139 heartbeat IPC: 0.666887 cumulative IPC: 0.733623 (Simulation time: 0 hr 13 min 25 sec) 
Heartbeat CPU 0 instructions: 410000001 cycles: 458009246 heartbeat IPC: 0.692372 cumulative IPC: 0.732216 (Simulation time: 0 hr 13 min 47 sec) 
Heartbeat CPU 0 instructions: 420000000 cycles: 471878376 heartbeat IPC: 0.721026 cumulative IPC: 0.731861 (Simulation time: 0 hr 14 min 7 sec) 
Heartbeat CPU 0 instructions: 430000002 cycles: 486455239 heartbeat IPC: 0.686019 cumulative IPC: 0.730382 (Simulation time: 0 hr 14 min 28 sec) 
Heartbeat CPU 0 instructions: 440000000 cycles: 501966513 heartbeat IPC: 0.644692 cumulative IPC: 0.727538 (Simulation time: 0 hr 14 min 50 sec) 
Heartbeat CPU 0 instructions: 450000000 cycles: 516589952 heartbeat IPC: 0.683834 cumulative IPC: 0.726212 (Simulation time: 0 hr 15 min 12 sec) 
Heartbeat CPU 0 instructions: 460000000 cycles: 531191784 heartbeat IPC: 0.684846 cumulative IPC: 0.724995 (Simulation time: 0 hr 15 min 33 sec) 
Heartbeat CPU 0 instructions: 470000003 cycles: 546358316 heartbeat IPC: 0.659347 cumulative IPC: 0.72305 (Simulation time: 0 hr 15 min 55 sec) 
Heartbeat CPU 0 instructions: 480000000 cycles: 561298363 heartbeat IPC: 0.669342 cumulative IPC: 0.721526 (Simulation time: 0 hr 16 min 16 sec) 
Heartbeat CPU 0 instructions: 490000001 cycles: 576028794 heartbeat IPC: 0.678867 cumulative IPC: 0.720365 (Simulation time: 0 hr 16 min 38 sec) 
Heartbeat CPU 0 instructions: 500000003 cycles: 590959199 heartbeat IPC: 0.669774 cumulative IPC: 0.719008 (Simulation time: 0 hr 16 min 59 sec) 
Heartbeat CPU 0 instructions: 510000000 cycles: 606232863 heartbeat IPC: 0.654722 cumulative IPC: 0.71729 (Simulation time: 0 hr 17 min 21 sec) 
Heartbeat CPU 0 instructions: 520000001 cycles: 620978041 heartbeat IPC: 0.678188 cumulative IPC: 0.716306 (Simulation time: 0 hr 17 min 43 sec) 
Heartbeat CPU 0 instructions: 530000001 cycles: 635951757 heartbeat IPC: 0.667837 cumulative IPC: 0.715099 (Simulation time: 0 hr 18 min 4 sec) 
Heartbeat CPU 0 instructions: 540000001 cycles: 651197780 heartbeat IPC: 0.655909 cumulative IPC: 0.713636 (Simulation time: 0 hr 18 min 26 sec) 
Heartbeat CPU 0 instructions: 550000000 cycles: 665977900 heartbeat IPC: 0.676584 cumulative IPC: 0.712768 (Simulation time: 0 hr 18 min 48 sec) 
Heartbeat CPU 0 instructions: 560000001 cycles: 681122617 heartbeat IPC: 0.660296 cumulative IPC: 0.711539 (Simulation time: 0 hr 19 min 10 sec) 
Heartbeat CPU 0 instructions: 570000003 cycles: 696186938 heartbeat IPC: 0.66382 cumulative IPC: 0.710453 (Simulation time: 0 hr 19 min 31 sec) 
Heartbeat CPU 0 instructions: 580000000 cycles: 710930955 heartbeat IPC: 0.678241 cumulative IPC: 0.70975 (Simulation time: 0 hr 19 min 53 sec) 
Heartbeat CPU 0 instructions: 590000002 cycles: 726385024 heartbeat IPC: 0.647079 cumulative IPC: 0.70835 (Simulation time: 0 hr 20 min 15 sec) 
Heartbeat CPU 0 instructions: 600000000 cycles: 741182041 heartbeat IPC: 0.675812 cumulative IPC: 0.707669 (Simulation time: 0 hr 20 min 36 sec) 
Heartbeat CPU 0 instructions: 610000000 cycles: 755206558 heartbeat IPC: 0.713037 cumulative IPC: 0.707773 (Simulation time: 0 hr 20 min 57 sec) 
Heartbeat CPU 0 instructions: 620000003 cycles: 770727933 heartbeat IPC: 0.644273 cumulative IPC: 0.706434 (Simulation time: 0 hr 21 min 19 sec) 
Heartbeat CPU 0 instructions: 630000002 cycles: 785495722 heartbeat IPC: 0.677149 cumulative IPC: 0.705858 (Simulation time: 0 hr 21 min 41 sec) 
Heartbeat CPU 0 instructions: 640000000 cycles: 800089992 heartbeat IPC: 0.6852 cumulative IPC: 0.705464 (Simulation time: 0 hr 22 min 2 sec) 
Heartbeat CPU 0 instructions: 650000000 cycles: 815628547 heartbeat IPC: 0.64356 cumulative IPC: 0.704233 (Simulation time: 0 hr 22 min 24 sec) 
Heartbeat CPU 0 instructions: 660000000 cycles: 830401837 heartbeat IPC: 0.676897 cumulative IPC: 0.703725 (Simulation time: 0 hr 22 min 46 sec) 
Heartbeat CPU 0 instructions: 670000003 cycles: 844945252 heartbeat IPC: 0.687597 cumulative IPC: 0.703436 (Simulation time: 0 hr 23 min 7 sec) 
Heartbeat CPU 0 instructions: 680000003 cycles: 860557956 heartbeat IPC: 0.640504 cumulative IPC: 0.702246 (Simulation time: 0 hr 23 min 29 sec) 
Heartbeat CPU 0 instructions: 690000000 cycles: 875056719 heartbeat IPC: 0.689714 cumulative IPC: 0.70203 (Simulation time: 0 hr 23 min 51 sec) 
Heartbeat CPU 0 instructions: 700000001 cycles: 889650999 heartbeat IPC: 0.6852 cumulative IPC: 0.701743 (Simulation time: 0 hr 24 min 12 sec) 
Heartbeat CPU 0 instructions: 710000003 cycles: 904085279 heartbeat IPC: 0.692795 cumulative IPC: 0.701594 (Simulation time: 0 hr 24 min 33 sec) 
Heartbeat CPU 0 instructions: 720000003 cycles: 919691503 heartbeat IPC: 0.64077 cumulative IPC: 0.700522 (Simulation time: 0 hr 24 min 55 sec) 
Heartbeat CPU 0 instructions: 730000001 cycles: 934131409 heartbeat IPC: 0.692525 cumulative IPC: 0.700393 (Simulation time: 0 hr 25 min 17 sec) 
Heartbeat CPU 0 instructions: 740000000 cycles: 948608276 heartbeat IPC: 0.690757 cumulative IPC: 0.700241 (Simulation time: 0 hr 25 min 38 sec) 
Heartbeat CPU 0 instructions: 750000000 cycles: 963102298 heartbeat IPC: 0.68994 cumulative IPC: 0.70008 (Simulation time: 0 hr 25 min 59 sec) 
Heartbeat CPU 0 instructions: 760000003 cycles: 977430331 heartbeat IPC: 0.697933 cumulative IPC: 0.700047 (Simulation time: 0 hr 26 min 21 sec) 
Heartbeat CPU 0 instructions: 770000000 cycles: 990963333 heartbeat IPC: 0.738934 cumulative IPC: 0.700598 (Simulation time: 0 hr 26 min 41 sec) 
Heartbeat CPU 0 instructions: 780000000 cycles: 1005210456 heartbeat IPC: 0.701896 cumulative IPC: 0.700617 (Simulation time: 0 hr 27 min 2 sec) 
Heartbeat CPU 0 instructions: 790000002 cycles: 1019464661 heartbeat IPC: 0.701548 cumulative IPC: 0.70063 (Simulation time: 0 hr 27 min 24 sec) 
Heartbeat CPU 0 instructions: 800000002 cycles: 1033600544 heartbeat IPC: 0.70742 cumulative IPC: 0.700726 (Simulation time: 0 hr 27 min 45 sec) 
Heartbeat CPU 0 instructions: 810000001 cycles: 1047801262 heartbeat IPC: 0.70419 cumulative IPC: 0.700775 (Simulation time: 0 hr 28 min 6 sec) 
Heartbeat CPU 0 instructions: 820000001 cycles: 1061778383 heartbeat IPC: 0.715455 cumulative IPC: 0.700974 (Simulation time: 0 hr 28 min 27 sec) 
Heartbeat CPU 0 instructions: 830000003 cycles: 1075779919 heartbeat IPC: 0.714207 cumulative IPC: 0.701152 (Simulation time: 0 hr 28 min 48 sec) 
Heartbeat CPU 0 instructions: 840000001 cycles: 1089252787 heartbeat IPC: 0.742232 cumulative IPC: 0.701677 (Simulation time: 0 hr 29 min 8 sec) 
Heartbeat CPU 0 instructions: 850000002 cycles: 1102411880 heartbeat IPC: 0.759931 cumulative IPC: 0.702395 (Simulation time: 0 hr 29 min 29 sec) 
Heartbeat CPU 0 instructions: 860000003 cycles: 1116297242 heartbeat IPC: 0.720183 cumulative IPC: 0.702623 (Simulation time: 0 hr 29 min 49 sec) 
Heartbeat CPU 0 instructions: 870000003 cycles: 1130164957 heartbeat IPC: 0.721099 cumulative IPC: 0.702857 (Simulation time: 0 hr 30 min 10 sec) 
Heartbeat CPU 0 instructions: 880000000 cycles: 1143324702 heartbeat IPC: 0.759893 cumulative IPC: 0.703534 (Simulation time: 0 hr 30 min 30 sec) 
Heartbeat CPU 0 instructions: 890000000 cycles: 1156199808 heartbeat IPC: 0.776693 cumulative IPC: 0.704374 (Simulation time: 0 hr 30 min 51 sec) 
Heartbeat CPU 0 instructions: 900000003 cycles: 1169965445 heartbeat IPC: 0.726447 cumulative IPC: 0.704642 (Simulation time: 0 hr 31 min 11 sec) 
Heartbeat CPU 0 instructions: 910000003 cycles: 1183720819 heartbeat IPC: 0.726989 cumulative IPC: 0.704909 (Simulation time: 0 hr 31 min 32 sec) 
Heartbeat CPU 0 instructions: 920000000 cycles: 1197181860 heartbeat IPC: 0.742884 cumulative IPC: 0.705349 (Simulation time: 0 hr 31 min 53 sec) 
Heartbeat CPU 0 instructions: 930000001 cycles: 1210006161 heartbeat IPC: 0.77977 cumulative IPC: 0.706161 (Simulation time: 0 hr 32 min 13 sec) 
Heartbeat CPU 0 instructions: 940000002 cycles: 1223753558 heartbeat IPC: 0.72741 cumulative IPC: 0.706407 (Simulation time: 0 hr 32 min 34 sec) 
Heartbeat CPU 0 instructions: 950000002 cycles: 1237487513 heartbeat IPC: 0.728122 cumulative IPC: 0.706655 (Simulation time: 0 hr 32 min 54 sec) 
Heartbeat CPU 0 instructions: 960000003 cycles: 1250547050 heartbeat IPC: 0.765724 cumulative IPC: 0.707289 (Simulation time: 0 hr 33 min 15 sec) 
Heartbeat CPU 0 instructions: 970000001 cycles: 1263720634 heartbeat IPC: 0.759095 cumulative IPC: 0.707844 (Simulation time: 0 hr 33 min 35 sec) 
Heartbeat CPU 0 instructions: 980000003 cycles: 1276756467 heartbeat IPC: 0.767116 cumulative IPC: 0.708466 (Simulation time: 0 hr 33 min 55 sec) 
Heartbeat CPU 0 instructions: 990000000 cycles: 1289749656 heartbeat IPC: 0.769634 cumulative IPC: 0.7091 (Simulation time: 0 hr 34 min 15 sec) 
Heartbeat CPU 0 instructions: 1000000000 cycles: 1302846169 heartbeat IPC: 0.763562 cumulative IPC: 0.709662 (Simulation time: 0 hr 34 min 36 sec) 
Heartbeat CPU 0 instructions: 1010000002 cycles: 1316551484 heartbeat IPC: 0.729644 cumulative IPC: 0.709876 (Simulation time: 0 hr 34 min 56 sec) 
Heartbeat CPU 0 instructions: 1020000000 cycles: 1330225503 heartbeat IPC: 0.731314 cumulative IPC: 0.710102 (Simulation time: 0 hr 35 min 17 sec) 
Heartbeat CPU 0 instructions: 1030000001 cycles: 1342782891 heartbeat IPC: 0.796344 cumulative IPC: 0.71093 (Simulation time: 0 hr 35 min 37 sec) 
Heartbeat CPU 0 instructions: 1040000001 cycles: 1356473461 heartbeat IPC: 0.73043 cumulative IPC: 0.711132 (Simulation time: 0 hr 35 min 58 sec) 
Heartbeat CPU 0 instructions: 1050000000 cycles: 1370185976 heartbeat IPC: 0.729261 cumulative IPC: 0.711318 (Simulation time: 0 hr 36 min 18 sec) 
Heartbeat CPU 0 instructions: 1060000000 cycles: 1383507700 heartbeat IPC: 0.750654 cumulative IPC: 0.711706 (Simulation time: 0 hr 36 min 39 sec) 
Heartbeat CPU 0 instructions: 1070000002 cycles: 1396769074 heartbeat IPC: 0.75407 cumulative IPC: 0.712119 (Simulation time: 0 hr 36 min 59 sec) 
Heartbeat CPU 0 instructions: 1080000001 cycles: 1409512894 heartbeat IPC: 0.784694 cumulative IPC: 0.712792 (Simulation time: 0 hr 37 min 19 sec) 
Heartbeat CPU 0 instructions: 1090000001 cycles: 1423547438 heartbeat IPC: 0.712528 cumulative IPC: 0.712789 (Simulation time: 0 hr 37 min 40 sec) 
Heartbeat CPU 0 instructions: 1100000000 cycles: 1436749728 heartbeat IPC: 0.757444 cumulative IPC: 0.713209 (Simulation time: 0 hr 38 min 1 sec) 
Finished CPU 0 instructions: 1000000001 cycles: 1402112919 cumulative IPC: 0.713209 (Simulation time: 0 hr 38 min 1 sec) 

ChampSim completed all CPUs

Region of Interest Statistics

CPU 0 cumulative IPC: 0.713209 instructions: 1000000001 cycles: 1402112919
L1D TOTAL     ACCESS:  147977221  HIT:  133084096  MISS:   14893125
L1D LOAD      ACCESS:  130062378  HIT:  115707098  MISS:   14355280
L1D RFO       ACCESS:   17914843  HIT:   17376998  MISS:     537845
L1D PREFETCH  ACCESS:          0  HIT:          0  MISS:          0
L1D WRITEBACK ACCESS:          0  HIT:          0  MISS:          0
L1D PREFETCH  REQUESTED:          0  ISSUED:          0  USEFUL:          0  USELESS:          0
L1D AVERAGE MISS LATENCY: 111.767 cycles
L1I TOTAL     ACCESS:  210022874  HIT:  210022196  MISS:        678
L1I LOAD      ACCESS:  210022874  HIT:  210022196  MISS:        678
L1I RFO       ACCESS:          0  HIT:          0  MISS:          0
L1I PREFETCH  ACCESS:          0  HIT:          0  MISS:          0
L1I WRITEBACK ACCESS:          0  HIT:          0  MISS:          0
L1I PREFETCH  REQUESTED:          0  ISSUED:          0  USEFUL:          0  USELESS:          0
L1I AVERAGE MISS LATENCY: 214.412 cycles
L2C TOTAL     ACCESS:   15841199  HIT:    3028995  MISS:   12812204
L2C LOAD      ACCESS:   14355905  HIT:    2000021  MISS:   12355884
L2C RFO       ACCESS:     537801  HIT:      83930  MISS:     453871
L2C PREFETCH  ACCESS:          0  HIT:          0  MISS:          0
L2C WRITEBACK ACCESS:     947493  HIT:     945044  MISS:       2449
L2C PREFETCH  REQUESTED:          0  ISSUED:          0  USEFUL:          0  USELESS:          0
L2C AVERAGE MISS LATENCY: 111.742 cycles
LLC TOTAL     ACCESS:   13617239  HIT:    5166073  MISS:    8451166
LLC LOAD      ACCESS:   12355865  HIT:    3946185  MISS:    8409680
LLC RFO       ACCESS:     453870  HIT:     434027  MISS:      19843
LLC PREFETCH  ACCESS:          0  HIT:          0  MISS:          0
LLC WRITEBACK ACCESS:     807504  HIT:     785861  MISS:      21643
LLC PREFETCH  REQUESTED:          0  ISSUED:          0  USEFUL:          0  USELESS:          0
LLC AVERAGE MISS LATENCY: 123.298 cycles
Major fault: 0 Minor fault: 4441
==============================
Perceptron RRIP Stats:
   Num Updates: 14035905
   Num Trains:  36055
==============================
perceptron #0: -21 3 11 9 3 1 1 -5 17 1 -15 9 7 3 -1 -5 3 -3 1 1 -65 


DRAM Statistics
 CHANNEL 0
 RQ ROW_BUFFER_HIT:    6020767  ROW_BUFFER_MISS:    2408742
 DBUS_CONGESTED:     282456
 WQ ROW_BUFFER_HIT:      37336  ROW_BUFFER_MISS:      39989  FULL:          0

 AVG_CONGESTED_CYCLE: 5

CPU 0 Branch Prediction Accuracy: 95.5612% MPKI: 4.19749 Average ROB Occupancy at Mispredict: 141.424

Branch types
NOT_BRANCH: 905436987 90.5437%
BRANCH_DIRECT_JUMP: 1644011 0.164401%
BRANCH_INDIRECT: 0 0%
BRANCH_CONDITIONAL: 88615621 8.86156%
BRANCH_DIRECT_CALL: 2151557 0.215156%
BRANCH_INDIRECT_CALL: 112 1.12e-05%
BRANCH_RETURN: 2151669 0.215167%
BRANCH_OTHER: 0 0%

