
*** ChampSim Multicore Out-of-Order Simulator ***

Warmup Instructions: 100000000
Simulation Instructions: 1000000000
Number of CPUs: 1
LLC sets: 2048
LLC ways: 16
Off-chip DRAM Size: 4096 MB Channels: 1 Width: 64-bit Data Rate: 3200 MT/s

CPU 0 runs /scratch/user/kevin.weston/dpc3-traces/600.champsimtrace.xz
CPU 0 Bimodal branch predictor
Initialize RRPV
Initialize PRRIP state
Heartbeat CPU 0 instructions: 10000000 cycles: 3913800 heartbeat IPC: 2.55506 cumulative IPC: 2.55506 (Simulation time: 0 hr 0 min 26 sec) 
Heartbeat CPU 0 instructions: 20000000 cycles: 7798715 heartbeat IPC: 2.57406 cumulative IPC: 2.56453 (Simulation time: 0 hr 0 min 51 sec) 
Heartbeat CPU 0 instructions: 30000002 cycles: 11686981 heartbeat IPC: 2.57184 cumulative IPC: 2.56696 (Simulation time: 0 hr 1 min 17 sec) 
Heartbeat CPU 0 instructions: 40000000 cycles: 15533930 heartbeat IPC: 2.59946 cumulative IPC: 2.57501 (Simulation time: 0 hr 1 min 42 sec) 
Heartbeat CPU 0 instructions: 50000003 cycles: 19429507 heartbeat IPC: 2.56701 cumulative IPC: 2.57341 (Simulation time: 0 hr 2 min 8 sec) 
Heartbeat CPU 0 instructions: 60000003 cycles: 23343166 heartbeat IPC: 2.55515 cumulative IPC: 2.57035 (Simulation time: 0 hr 2 min 33 sec) 
Heartbeat CPU 0 instructions: 70000003 cycles: 26923598 heartbeat IPC: 2.79296 cumulative IPC: 2.59995 (Simulation time: 0 hr 2 min 58 sec) 
Heartbeat CPU 0 instructions: 80000001 cycles: 30549656 heartbeat IPC: 2.75782 cumulative IPC: 2.61869 (Simulation time: 0 hr 3 min 24 sec) 
Heartbeat CPU 0 instructions: 90000000 cycles: 34402115 heartbeat IPC: 2.59574 cumulative IPC: 2.61612 (Simulation time: 0 hr 3 min 49 sec) 
Heartbeat CPU 0 instructions: 100000000 cycles: 38346299 heartbeat IPC: 2.53538 cumulative IPC: 2.60781 (Simulation time: 0 hr 4 min 14 sec) 

Warmup complete CPU 0 instructions: 100000004 cycles: 38346300 (Simulation time: 0 hr 4 min 14 sec) 

Heartbeat CPU 0 instructions: 110000000 cycles: 45168404 heartbeat IPC: 1.46582 cumulative IPC: 1.46582 (Simulation time: 0 hr 4 min 36 sec) 
Heartbeat CPU 0 instructions: 120000002 cycles: 52015987 heartbeat IPC: 1.46037 cumulative IPC: 1.46309 (Simulation time: 0 hr 4 min 59 sec) 
Heartbeat CPU 0 instructions: 130000000 cycles: 59896386 heartbeat IPC: 1.26897 cumulative IPC: 1.39211 (Simulation time: 0 hr 5 min 22 sec) 
Heartbeat CPU 0 instructions: 140000003 cycles: 67695225 heartbeat IPC: 1.28224 cumulative IPC: 1.36291 (Simulation time: 0 hr 5 min 44 sec) 
Heartbeat CPU 0 instructions: 150000000 cycles: 74747621 heartbeat IPC: 1.41796 cumulative IPC: 1.37358 (Simulation time: 0 hr 6 min 7 sec) 
Heartbeat CPU 0 instructions: 160000000 cycles: 81367298 heartbeat IPC: 1.51065 cumulative IPC: 1.39467 (Simulation time: 0 hr 6 min 28 sec) 
Heartbeat CPU 0 instructions: 170000002 cycles: 88853793 heartbeat IPC: 1.33574 cumulative IPC: 1.38593 (Simulation time: 0 hr 6 min 50 sec) 
Heartbeat CPU 0 instructions: 180000000 cycles: 95634072 heartbeat IPC: 1.47487 cumulative IPC: 1.39646 (Simulation time: 0 hr 7 min 12 sec) 
Heartbeat CPU 0 instructions: 190000001 cycles: 102436616 heartbeat IPC: 1.47004 cumulative IPC: 1.40427 (Simulation time: 0 hr 7 min 37 sec) 
Heartbeat CPU 0 instructions: 200000000 cycles: 110633446 heartbeat IPC: 1.21998 cumulative IPC: 1.38337 (Simulation time: 0 hr 8 min 0 sec) 
Heartbeat CPU 0 instructions: 210000001 cycles: 118560287 heartbeat IPC: 1.26154 cumulative IPC: 1.37133 (Simulation time: 0 hr 8 min 23 sec) 
Heartbeat CPU 0 instructions: 220000000 cycles: 126444730 heartbeat IPC: 1.26832 cumulative IPC: 1.36211 (Simulation time: 0 hr 8 min 46 sec) 
Heartbeat CPU 0 instructions: 230000000 cycles: 134309697 heartbeat IPC: 1.27146 cumulative IPC: 1.35468 (Simulation time: 0 hr 9 min 9 sec) 
Heartbeat CPU 0 instructions: 240000000 cycles: 142079144 heartbeat IPC: 1.28709 cumulative IPC: 1.34962 (Simulation time: 0 hr 9 min 32 sec) 
Heartbeat CPU 0 instructions: 250000002 cycles: 148460646 heartbeat IPC: 1.56703 cumulative IPC: 1.36222 (Simulation time: 0 hr 9 min 54 sec) 
Heartbeat CPU 0 instructions: 260000002 cycles: 156155543 heartbeat IPC: 1.29956 cumulative IPC: 1.35813 (Simulation time: 0 hr 10 min 17 sec) 
Heartbeat CPU 0 instructions: 270000001 cycles: 163477162 heartbeat IPC: 1.36582 cumulative IPC: 1.35858 (Simulation time: 0 hr 10 min 40 sec) 
Heartbeat CPU 0 instructions: 280000002 cycles: 170404137 heartbeat IPC: 1.44363 cumulative IPC: 1.36304 (Simulation time: 0 hr 11 min 3 sec) 
Heartbeat CPU 0 instructions: 290000001 cycles: 178146197 heartbeat IPC: 1.29165 cumulative IPC: 1.35909 (Simulation time: 0 hr 11 min 26 sec) 
Heartbeat CPU 0 instructions: 300000000 cycles: 186240650 heartbeat IPC: 1.23541 cumulative IPC: 1.35232 (Simulation time: 0 hr 11 min 49 sec) 
Heartbeat CPU 0 instructions: 310000003 cycles: 194149059 heartbeat IPC: 1.26448 cumulative IPC: 1.34786 (Simulation time: 0 hr 12 min 12 sec) 
Heartbeat CPU 0 instructions: 320000000 cycles: 201623123 heartbeat IPC: 1.33796 cumulative IPC: 1.3474 (Simulation time: 0 hr 12 min 34 sec) 
Heartbeat CPU 0 instructions: 330000000 cycles: 208254581 heartbeat IPC: 1.50796 cumulative IPC: 1.35367 (Simulation time: 0 hr 12 min 56 sec) 
Heartbeat CPU 0 instructions: 340000002 cycles: 215214834 heartbeat IPC: 1.43673 cumulative IPC: 1.35694 (Simulation time: 0 hr 13 min 19 sec) 
Heartbeat CPU 0 instructions: 350000000 cycles: 222250645 heartbeat IPC: 1.4213 cumulative IPC: 1.3594 (Simulation time: 0 hr 13 min 42 sec) 
Heartbeat CPU 0 instructions: 360000002 cycles: 230058374 heartbeat IPC: 1.28078 cumulative IPC: 1.3562 (Simulation time: 0 hr 14 min 4 sec) 
Heartbeat CPU 0 instructions: 370000003 cycles: 237166596 heartbeat IPC: 1.40682 cumulative IPC: 1.35801 (Simulation time: 0 hr 14 min 27 sec) 
Heartbeat CPU 0 instructions: 380000003 cycles: 244619206 heartbeat IPC: 1.34181 cumulative IPC: 1.35742 (Simulation time: 0 hr 14 min 50 sec) 
Heartbeat CPU 0 instructions: 390000001 cycles: 252522946 heartbeat IPC: 1.26522 cumulative IPC: 1.35402 (Simulation time: 0 hr 15 min 13 sec) 
Heartbeat CPU 0 instructions: 400000001 cycles: 260360975 heartbeat IPC: 1.27583 cumulative IPC: 1.35126 (Simulation time: 0 hr 15 min 36 sec) 
Heartbeat CPU 0 instructions: 410000000 cycles: 267646127 heartbeat IPC: 1.37265 cumulative IPC: 1.35194 (Simulation time: 0 hr 15 min 58 sec) 
Heartbeat CPU 0 instructions: 420000001 cycles: 274836421 heartbeat IPC: 1.39076 cumulative IPC: 1.35312 (Simulation time: 0 hr 16 min 20 sec) 
Heartbeat CPU 0 instructions: 430000000 cycles: 281482258 heartbeat IPC: 1.5047 cumulative IPC: 1.35727 (Simulation time: 0 hr 16 min 44 sec) 
Heartbeat CPU 0 instructions: 440000000 cycles: 289152689 heartbeat IPC: 1.30371 cumulative IPC: 1.35563 (Simulation time: 0 hr 17 min 7 sec) 
Heartbeat CPU 0 instructions: 450000003 cycles: 295801615 heartbeat IPC: 1.504 cumulative IPC: 1.35946 (Simulation time: 0 hr 17 min 30 sec) 
Heartbeat CPU 0 instructions: 460000002 cycles: 303448590 heartbeat IPC: 1.30771 cumulative IPC: 1.35797 (Simulation time: 0 hr 17 min 53 sec) 
Heartbeat CPU 0 instructions: 470000003 cycles: 314560510 heartbeat IPC: 0.899935 cumulative IPC: 1.33954 (Simulation time: 0 hr 18 min 17 sec) 
Heartbeat CPU 0 instructions: 480000003 cycles: 325483076 heartbeat IPC: 0.915536 cumulative IPC: 1.32341 (Simulation time: 0 hr 18 min 39 sec) 
Heartbeat CPU 0 instructions: 490000001 cycles: 333023447 heartbeat IPC: 1.32619 cumulative IPC: 1.32348 (Simulation time: 0 hr 19 min 1 sec) 
Heartbeat CPU 0 instructions: 500000001 cycles: 341856894 heartbeat IPC: 1.13206 cumulative IPC: 1.31791 (Simulation time: 0 hr 19 min 22 sec) 
Heartbeat CPU 0 instructions: 510000002 cycles: 353343362 heartbeat IPC: 0.87059 cumulative IPC: 1.3016 (Simulation time: 0 hr 19 min 44 sec) 
Heartbeat CPU 0 instructions: 520000003 cycles: 370424673 heartbeat IPC: 0.585435 cumulative IPC: 1.26476 (Simulation time: 0 hr 20 min 7 sec) 
Heartbeat CPU 0 instructions: 530000003 cycles: 385902648 heartbeat IPC: 0.646079 cumulative IPC: 1.23721 (Simulation time: 0 hr 20 min 31 sec) 
Heartbeat CPU 0 instructions: 540000002 cycles: 400017009 heartbeat IPC: 0.708498 cumulative IPC: 1.21658 (Simulation time: 0 hr 20 min 54 sec) 
Heartbeat CPU 0 instructions: 550000000 cycles: 417038836 heartbeat IPC: 0.587481 cumulative IPC: 1.1883 (Simulation time: 0 hr 21 min 18 sec) 
Heartbeat CPU 0 instructions: 560000001 cycles: 425079261 heartbeat IPC: 1.24372 cumulative IPC: 1.18945 (Simulation time: 0 hr 21 min 41 sec) 
Heartbeat CPU 0 instructions: 570000000 cycles: 432797550 heartbeat IPC: 1.29562 cumulative IPC: 1.19153 (Simulation time: 0 hr 22 min 4 sec) 
Heartbeat CPU 0 instructions: 580000000 cycles: 441232891 heartbeat IPC: 1.18549 cumulative IPC: 1.1914 (Simulation time: 0 hr 22 min 28 sec) 
Heartbeat CPU 0 instructions: 590000000 cycles: 449553626 heartbeat IPC: 1.20182 cumulative IPC: 1.19161 (Simulation time: 0 hr 22 min 51 sec) 
Heartbeat CPU 0 instructions: 600000001 cycles: 461768215 heartbeat IPC: 0.818693 cumulative IPC: 1.18086 (Simulation time: 0 hr 23 min 15 sec) 
Heartbeat CPU 0 instructions: 610000001 cycles: 477355293 heartbeat IPC: 0.641557 cumulative IPC: 1.16171 (Simulation time: 0 hr 23 min 39 sec) 
Heartbeat CPU 0 instructions: 620000002 cycles: 493806558 heartbeat IPC: 0.607856 cumulative IPC: 1.1417 (Simulation time: 0 hr 24 min 2 sec) 
Heartbeat CPU 0 instructions: 630000003 cycles: 505843109 heartbeat IPC: 0.830803 cumulative IPC: 1.1337 (Simulation time: 0 hr 24 min 27 sec) 
Heartbeat CPU 0 instructions: 640000002 cycles: 518483281 heartbeat IPC: 0.791128 cumulative IPC: 1.12468 (Simulation time: 0 hr 24 min 52 sec) 
Heartbeat CPU 0 instructions: 650000003 cycles: 534602972 heartbeat IPC: 0.620359 cumulative IPC: 1.1083 (Simulation time: 0 hr 25 min 16 sec) 
Heartbeat CPU 0 instructions: 660000000 cycles: 549649225 heartbeat IPC: 0.664617 cumulative IPC: 1.09524 (Simulation time: 0 hr 25 min 39 sec) 
Heartbeat CPU 0 instructions: 670000001 cycles: 560004324 heartbeat IPC: 0.965708 cumulative IPC: 1.09267 (Simulation time: 0 hr 26 min 3 sec) 
Heartbeat CPU 0 instructions: 680000000 cycles: 576623985 heartbeat IPC: 0.601697 cumulative IPC: 1.07751 (Simulation time: 0 hr 26 min 27 sec) 
Heartbeat CPU 0 instructions: 690000002 cycles: 592399038 heartbeat IPC: 0.633912 cumulative IPC: 1.06488 (Simulation time: 0 hr 26 min 50 sec) 
Heartbeat CPU 0 instructions: 700000002 cycles: 599974951 heartbeat IPC: 1.31997 cumulative IPC: 1.06832 (Simulation time: 0 hr 27 min 13 sec) 
Heartbeat CPU 0 instructions: 710000001 cycles: 606983524 heartbeat IPC: 1.42682 cumulative IPC: 1.07274 (Simulation time: 0 hr 27 min 36 sec) 
Heartbeat CPU 0 instructions: 720000001 cycles: 613931029 heartbeat IPC: 1.43937 cumulative IPC: 1.07717 (Simulation time: 0 hr 27 min 59 sec) 
Heartbeat CPU 0 instructions: 730000001 cycles: 620048113 heartbeat IPC: 1.63477 cumulative IPC: 1.08303 (Simulation time: 0 hr 28 min 24 sec) 
Heartbeat CPU 0 instructions: 740000000 cycles: 626542298 heartbeat IPC: 1.53984 cumulative IPC: 1.08807 (Simulation time: 0 hr 28 min 48 sec) 
Heartbeat CPU 0 instructions: 750000002 cycles: 633849674 heartbeat IPC: 1.36848 cumulative IPC: 1.09151 (Simulation time: 0 hr 29 min 12 sec) 
Heartbeat CPU 0 instructions: 760000000 cycles: 641326724 heartbeat IPC: 1.33743 cumulative IPC: 1.09456 (Simulation time: 0 hr 29 min 34 sec) 
Heartbeat CPU 0 instructions: 770000000 cycles: 648572072 heartbeat IPC: 1.3802 cumulative IPC: 1.09795 (Simulation time: 0 hr 29 min 57 sec) 
Heartbeat CPU 0 instructions: 780000003 cycles: 655414134 heartbeat IPC: 1.46155 cumulative IPC: 1.10199 (Simulation time: 0 hr 30 min 21 sec) 
Heartbeat CPU 0 instructions: 790000000 cycles: 662568182 heartbeat IPC: 1.39781 cumulative IPC: 1.10538 (Simulation time: 0 hr 30 min 44 sec) 
Heartbeat CPU 0 instructions: 800000002 cycles: 669405686 heartbeat IPC: 1.46252 cumulative IPC: 1.10925 (Simulation time: 0 hr 31 min 8 sec) 
Heartbeat CPU 0 instructions: 810000000 cycles: 676867306 heartbeat IPC: 1.34019 cumulative IPC: 1.11194 (Simulation time: 0 hr 31 min 31 sec) 
Heartbeat CPU 0 instructions: 820000002 cycles: 682836938 heartbeat IPC: 1.67515 cumulative IPC: 1.11716 (Simulation time: 0 hr 31 min 52 sec) 
Heartbeat CPU 0 instructions: 830000001 cycles: 688642053 heartbeat IPC: 1.72262 cumulative IPC: 1.12257 (Simulation time: 0 hr 32 min 12 sec) 
Heartbeat CPU 0 instructions: 840000003 cycles: 695671788 heartbeat IPC: 1.42253 cumulative IPC: 1.12577 (Simulation time: 0 hr 32 min 34 sec) 
Heartbeat CPU 0 instructions: 850000002 cycles: 703238329 heartbeat IPC: 1.32161 cumulative IPC: 1.128 (Simulation time: 0 hr 32 min 56 sec) 
Heartbeat CPU 0 instructions: 860000000 cycles: 710238646 heartbeat IPC: 1.42851 cumulative IPC: 1.13113 (Simulation time: 0 hr 33 min 19 sec) 
Heartbeat CPU 0 instructions: 870000002 cycles: 717278711 heartbeat IPC: 1.42044 cumulative IPC: 1.13413 (Simulation time: 0 hr 33 min 41 sec) 
Heartbeat CPU 0 instructions: 880000000 cycles: 724593544 heartbeat IPC: 1.36708 cumulative IPC: 1.13662 (Simulation time: 0 hr 34 min 4 sec) 
Heartbeat CPU 0 instructions: 890000001 cycles: 732071373 heartbeat IPC: 1.33729 cumulative IPC: 1.13878 (Simulation time: 0 hr 34 min 27 sec) 
Heartbeat CPU 0 instructions: 900000001 cycles: 739278363 heartbeat IPC: 1.38754 cumulative IPC: 1.14134 (Simulation time: 0 hr 34 min 50 sec) 
Heartbeat CPU 0 instructions: 910000001 cycles: 745526127 heartbeat IPC: 1.60057 cumulative IPC: 1.14539 (Simulation time: 0 hr 35 min 13 sec) 
Heartbeat CPU 0 instructions: 920000000 cycles: 752411417 heartbeat IPC: 1.45237 cumulative IPC: 1.14835 (Simulation time: 0 hr 35 min 36 sec) 
Heartbeat CPU 0 instructions: 930000003 cycles: 759145235 heartbeat IPC: 1.48504 cumulative IPC: 1.1515 (Simulation time: 0 hr 35 min 59 sec) 
Heartbeat CPU 0 instructions: 940000000 cycles: 766032692 heartbeat IPC: 1.45191 cumulative IPC: 1.15434 (Simulation time: 0 hr 36 min 23 sec) 
Heartbeat CPU 0 instructions: 950000002 cycles: 773460082 heartbeat IPC: 1.34637 cumulative IPC: 1.15628 (Simulation time: 0 hr 36 min 48 sec) 
Heartbeat CPU 0 instructions: 960000000 cycles: 781017278 heartbeat IPC: 1.32324 cumulative IPC: 1.15798 (Simulation time: 0 hr 37 min 11 sec) 
Heartbeat CPU 0 instructions: 970000000 cycles: 788586904 heartbeat IPC: 1.32107 cumulative IPC: 1.15963 (Simulation time: 0 hr 37 min 34 sec) 
Heartbeat CPU 0 instructions: 980000000 cycles: 796014753 heartbeat IPC: 1.34628 cumulative IPC: 1.16146 (Simulation time: 0 hr 37 min 56 sec) 
Heartbeat CPU 0 instructions: 990000000 cycles: 803617737 heartbeat IPC: 1.31527 cumulative IPC: 1.16299 (Simulation time: 0 hr 38 min 19 sec) 
Heartbeat CPU 0 instructions: 1000000000 cycles: 810880734 heartbeat IPC: 1.37684 cumulative IPC: 1.165 (Simulation time: 0 hr 38 min 43 sec) 
Heartbeat CPU 0 instructions: 1010000000 cycles: 817112803 heartbeat IPC: 1.6046 cumulative IPC: 1.16851 (Simulation time: 0 hr 39 min 5 sec) 
Heartbeat CPU 0 instructions: 1020000003 cycles: 824475996 heartbeat IPC: 1.35811 cumulative IPC: 1.17029 (Simulation time: 0 hr 39 min 28 sec) 
Heartbeat CPU 0 instructions: 1030000002 cycles: 831295024 heartbeat IPC: 1.46648 cumulative IPC: 1.17284 (Simulation time: 0 hr 39 min 52 sec) 
Heartbeat CPU 0 instructions: 1040000000 cycles: 838417655 heartbeat IPC: 1.40398 cumulative IPC: 1.1749 (Simulation time: 0 hr 40 min 15 sec) 
Heartbeat CPU 0 instructions: 1050000000 cycles: 845887644 heartbeat IPC: 1.33869 cumulative IPC: 1.17641 (Simulation time: 0 hr 40 min 38 sec) 
Heartbeat CPU 0 instructions: 1060000001 cycles: 853643088 heartbeat IPC: 1.28942 cumulative IPC: 1.17749 (Simulation time: 0 hr 41 min 2 sec) 
Heartbeat CPU 0 instructions: 1070000000 cycles: 861270113 heartbeat IPC: 1.31113 cumulative IPC: 1.17872 (Simulation time: 0 hr 41 min 25 sec) 
Heartbeat CPU 0 instructions: 1080000000 cycles: 868167480 heartbeat IPC: 1.44983 cumulative IPC: 1.18098 (Simulation time: 0 hr 41 min 47 sec) 
Heartbeat CPU 0 instructions: 1090000001 cycles: 875295706 heartbeat IPC: 1.40287 cumulative IPC: 1.18287 (Simulation time: 0 hr 42 min 10 sec) 
Heartbeat CPU 0 instructions: 1100000000 cycles: 881822011 heartbeat IPC: 1.53226 cumulative IPC: 1.18557 (Simulation time: 0 hr 42 min 34 sec) 
Finished CPU 0 instructions: 1000000002 cycles: 843475723 cumulative IPC: 1.18557 (Simulation time: 0 hr 42 min 34 sec) 

ChampSim completed all CPUs

Region of Interest Statistics

CPU 0 cumulative IPC: 1.18557 instructions: 1000000002 cycles: 843475723
L1D TOTAL     ACCESS:  366928156  HIT:  365868009  MISS:    1060147
L1D LOAD      ACCESS:  160275211  HIT:  159296512  MISS:     978699
L1D RFO       ACCESS:  206652945  HIT:  206571497  MISS:      81448
L1D PREFETCH  ACCESS:          0  HIT:          0  MISS:          0
L1D WRITEBACK ACCESS:          0  HIT:          0  MISS:          0
L1D PREFETCH  REQUESTED:          0  ISSUED:          0  USEFUL:          0  USELESS:          0
L1D AVERAGE MISS LATENCY: 67.079 cycles
L1I TOTAL     ACCESS:  159374408  HIT:  157724660  MISS:    1649748
L1I LOAD      ACCESS:  159374408  HIT:  157724660  MISS:    1649748
L1I RFO       ACCESS:          0  HIT:          0  MISS:          0
L1I PREFETCH  ACCESS:          0  HIT:          0  MISS:          0
L1I WRITEBACK ACCESS:          0  HIT:          0  MISS:          0
L1I PREFETCH  REQUESTED:          0  ISSUED:          0  USEFUL:          0  USELESS:          0
L1I AVERAGE MISS LATENCY: 17.4978 cycles
L2C TOTAL     ACCESS:    2976720  HIT:    2328174  MISS:     648546
L2C LOAD      ACCESS:    2628387  HIT:    2026364  MISS:     602023
L2C RFO       ACCESS:      81443  HIT:      41979  MISS:      39464
L2C PREFETCH  ACCESS:          0  HIT:          0  MISS:          0
L2C WRITEBACK ACCESS:     266890  HIT:     259831  MISS:       7059
L2C PREFETCH  REQUESTED:          0  ISSUED:          0  USEFUL:          0  USELESS:          0
L2C AVERAGE MISS LATENCY: 93.2597 cycles
LLC TOTAL     ACCESS:     774372  HIT:     467291  MISS:     307081
LLC LOAD      ACCESS:     602021  HIT:     331963  MISS:     270058
LLC RFO       ACCESS:      39464  HIT:      23160  MISS:      16304
LLC PREFETCH  ACCESS:          0  HIT:          0  MISS:          0
LLC WRITEBACK ACCESS:     132887  HIT:     112168  MISS:      20719
LLC PREFETCH  REQUESTED:          0  ISSUED:          0  USEFUL:          0  USELESS:          0
LLC AVERAGE MISS LATENCY: 133.741 cycles
Major fault: 0 Minor fault: 6011
==============================
Perceptron RRIP Stats:
   Num Updates: 747286
   Num Trains:  54615
==============================
perceptron #0: 1 -1 -1 -5 -3 -7 -3 -1 -1 1 -5 -1 1 -5 3 1 1 -1 3 -5 -15 

perceptron #1: 0 0 2 -2 -4 -2 2 2 -2 2 -4 -2 -2 -2 0 2 0 2 0 2 -20 

perceptron #2: 1 -5 -1 1 -1 -3 1 -1 -1 -1 -3 3 5 1 1 3 7 -1 1 3 -21 

perceptron #3: -2 -2 -2 0 -2 -4 -2 0 -2 2 -2 2 2 0 -2 0 2 0 0 0 -20 

perceptron #4: 1 1 -3 -1 -5 -3 3 3 -1 1 -3 -1 -1 1 3 -1 -1 -3 3 3 -19 

perceptron #5: -3 1 -1 -3 -3 -1 3 -1 -1 3 -1 -1 -1 -1 1 -3 3 1 3 5 -17 

perceptron #6: -3 1 3 1 -5 -1 1 -3 -1 1 -1 1 3 1 1 -3 3 1 1 -3 -19 

perceptron #7: 0 -2 -2 0 0 -2 0 -6 2 0 2 -4 -6 0 2 2 2 2 0 0 -18 


DRAM Statistics
 CHANNEL 0
 RQ ROW_BUFFER_HIT:      84516  ROW_BUFFER_MISS:     201844
 DBUS_CONGESTED:      18931
 WQ ROW_BUFFER_HIT:       9225  ROW_BUFFER_MISS:      26967  FULL:          0

 AVG_CONGESTED_CYCLE: 6

CPU 0 Branch Prediction Accuracy: 97.1732% MPKI: 4.19273 Average ROB Occupancy at Mispredict: 84.3226

Branch types
NOT_BRANCH: 851679755 85.168%
BRANCH_DIRECT_JUMP: 20351476 2.03515%
BRANCH_INDIRECT: 7090827 0.709083%
BRANCH_CONDITIONAL: 105247557 10.5248%
BRANCH_DIRECT_CALL: 7012686 0.701269%
BRANCH_INDIRECT_CALL: 802358 0.0802358%
BRANCH_RETURN: 7815044 0.781504%
BRANCH_OTHER: 0 0%

