
*** ChampSim Multicore Out-of-Order Simulator ***

Warmup Instructions: 100000000
Simulation Instructions: 1000000000
Number of CPUs: 1
LLC sets: 2048
LLC ways: 16
Off-chip DRAM Size: 4096 MB Channels: 1 Width: 64-bit Data Rate: 3200 MT/s

CPU 0 runs /scratch/user/kevin.weston/dpc3-traces/602.champsimtrace.xz
CPU 0 Bimodal branch predictor
Initialize RRPV
Initialize PRRIP state
Heartbeat CPU 0 instructions: 10000001 cycles: 5015429 heartbeat IPC: 1.99385 cumulative IPC: 1.99385 (Simulation time: 0 hr 0 min 24 sec) 
Heartbeat CPU 0 instructions: 20000002 cycles: 10021588 heartbeat IPC: 1.99754 cumulative IPC: 1.99569 (Simulation time: 0 hr 0 min 48 sec) 
Heartbeat CPU 0 instructions: 30000000 cycles: 15029870 heartbeat IPC: 1.99669 cumulative IPC: 1.99603 (Simulation time: 0 hr 1 min 12 sec) 
Heartbeat CPU 0 instructions: 40000002 cycles: 20051353 heartbeat IPC: 1.99144 cumulative IPC: 1.99488 (Simulation time: 0 hr 1 min 35 sec) 
Heartbeat CPU 0 instructions: 50000000 cycles: 25062758 heartbeat IPC: 1.99545 cumulative IPC: 1.99499 (Simulation time: 0 hr 1 min 59 sec) 
Heartbeat CPU 0 instructions: 60000000 cycles: 30080213 heartbeat IPC: 1.99304 cumulative IPC: 1.99467 (Simulation time: 0 hr 2 min 23 sec) 
Heartbeat CPU 0 instructions: 70000002 cycles: 35086769 heartbeat IPC: 1.99738 cumulative IPC: 1.99505 (Simulation time: 0 hr 2 min 46 sec) 
Heartbeat CPU 0 instructions: 80000000 cycles: 40090321 heartbeat IPC: 1.99858 cumulative IPC: 1.99549 (Simulation time: 0 hr 3 min 10 sec) 
Heartbeat CPU 0 instructions: 90000000 cycles: 45103030 heartbeat IPC: 1.99493 cumulative IPC: 1.99543 (Simulation time: 0 hr 3 min 33 sec) 
Heartbeat CPU 0 instructions: 100000000 cycles: 50089283 heartbeat IPC: 2.00551 cumulative IPC: 1.99644 (Simulation time: 0 hr 3 min 55 sec) 

Warmup complete CPU 0 instructions: 100000004 cycles: 50089284 (Simulation time: 0 hr 3 min 55 sec) 

Heartbeat CPU 0 instructions: 110000000 cycles: 70351336 heartbeat IPC: 0.493533 cumulative IPC: 0.493533 (Simulation time: 0 hr 4 min 16 sec) 
Heartbeat CPU 0 instructions: 120000000 cycles: 90128001 heartbeat IPC: 0.505646 cumulative IPC: 0.499516 (Simulation time: 0 hr 4 min 36 sec) 
Heartbeat CPU 0 instructions: 130000001 cycles: 111845359 heartbeat IPC: 0.460461 cumulative IPC: 0.485782 (Simulation time: 0 hr 4 min 57 sec) 
Heartbeat CPU 0 instructions: 140000001 cycles: 132437302 heartbeat IPC: 0.485627 cumulative IPC: 0.485743 (Simulation time: 0 hr 5 min 17 sec) 
Heartbeat CPU 0 instructions: 150000000 cycles: 152583568 heartbeat IPC: 0.49637 cumulative IPC: 0.487832 (Simulation time: 0 hr 5 min 37 sec) 
Heartbeat CPU 0 instructions: 160000003 cycles: 173331550 heartbeat IPC: 0.481975 cumulative IPC: 0.486846 (Simulation time: 0 hr 5 min 58 sec) 
Heartbeat CPU 0 instructions: 170000000 cycles: 193514900 heartbeat IPC: 0.495458 cumulative IPC: 0.488058 (Simulation time: 0 hr 6 min 18 sec) 
Heartbeat CPU 0 instructions: 180000000 cycles: 213306312 heartbeat IPC: 0.50527 cumulative IPC: 0.490145 (Simulation time: 0 hr 6 min 38 sec) 
Heartbeat CPU 0 instructions: 190000002 cycles: 247562665 heartbeat IPC: 0.291917 cumulative IPC: 0.455758 (Simulation time: 0 hr 6 min 59 sec) 
Heartbeat CPU 0 instructions: 200000000 cycles: 271896152 heartbeat IPC: 0.410956 cumulative IPC: 0.450843 (Simulation time: 0 hr 7 min 20 sec) 
Heartbeat CPU 0 instructions: 210000000 cycles: 292120126 heartbeat IPC: 0.494463 cumulative IPC: 0.454488 (Simulation time: 0 hr 7 min 40 sec) 
Heartbeat CPU 0 instructions: 220000000 cycles: 312003996 heartbeat IPC: 0.50292 cumulative IPC: 0.458164 (Simulation time: 0 hr 8 min 1 sec) 
Heartbeat CPU 0 instructions: 230000002 cycles: 331969963 heartbeat IPC: 0.500852 cumulative IPC: 0.461188 (Simulation time: 0 hr 8 min 21 sec) 
Heartbeat CPU 0 instructions: 240000001 cycles: 351607741 heartbeat IPC: 0.509223 cumulative IPC: 0.464317 (Simulation time: 0 hr 8 min 41 sec) 
Heartbeat CPU 0 instructions: 250000000 cycles: 372306041 heartbeat IPC: 0.483131 cumulative IPC: 0.465525 (Simulation time: 0 hr 9 min 1 sec) 
Heartbeat CPU 0 instructions: 260000000 cycles: 392391725 heartbeat IPC: 0.497867 cumulative IPC: 0.467423 (Simulation time: 0 hr 9 min 21 sec) 
Heartbeat CPU 0 instructions: 270000000 cycles: 412404386 heartbeat IPC: 0.499684 cumulative IPC: 0.469205 (Simulation time: 0 hr 9 min 42 sec) 
Heartbeat CPU 0 instructions: 280000001 cycles: 432413410 heartbeat IPC: 0.499775 cumulative IPC: 0.470805 (Simulation time: 0 hr 10 min 2 sec) 
Heartbeat CPU 0 instructions: 290000002 cycles: 452042518 heartbeat IPC: 0.509448 cumulative IPC: 0.472692 (Simulation time: 0 hr 10 min 22 sec) 
Heartbeat CPU 0 instructions: 300000000 cycles: 472585801 heartbeat IPC: 0.486777 cumulative IPC: 0.473377 (Simulation time: 0 hr 10 min 42 sec) 
Heartbeat CPU 0 instructions: 310000000 cycles: 492680900 heartbeat IPC: 0.497634 cumulative IPC: 0.474478 (Simulation time: 0 hr 11 min 2 sec) 
Heartbeat CPU 0 instructions: 320000001 cycles: 512402343 heartbeat IPC: 0.507062 cumulative IPC: 0.475868 (Simulation time: 0 hr 11 min 22 sec) 
Heartbeat CPU 0 instructions: 330000000 cycles: 532908308 heartbeat IPC: 0.487663 cumulative IPC: 0.476369 (Simulation time: 0 hr 11 min 42 sec) 
Heartbeat CPU 0 instructions: 340000002 cycles: 552981562 heartbeat IPC: 0.498175 cumulative IPC: 0.477239 (Simulation time: 0 hr 12 min 2 sec) 
Heartbeat CPU 0 instructions: 350000000 cycles: 572693104 heartbeat IPC: 0.507317 cumulative IPC: 0.478374 (Simulation time: 0 hr 12 min 22 sec) 
Heartbeat CPU 0 instructions: 360000000 cycles: 593251522 heartbeat IPC: 0.486419 cumulative IPC: 0.478678 (Simulation time: 0 hr 12 min 43 sec) 
Heartbeat CPU 0 instructions: 370000000 cycles: 613354334 heartbeat IPC: 0.497443 cumulative IPC: 0.479348 (Simulation time: 0 hr 13 min 3 sec) 
Heartbeat CPU 0 instructions: 380000000 cycles: 633066267 heartbeat IPC: 0.507307 cumulative IPC: 0.480293 (Simulation time: 0 hr 13 min 23 sec) 
Heartbeat CPU 0 instructions: 390000000 cycles: 653770894 heartbeat IPC: 0.482984 cumulative IPC: 0.480386 (Simulation time: 0 hr 13 min 44 sec) 
Heartbeat CPU 0 instructions: 400000002 cycles: 673846705 heartbeat IPC: 0.498112 cumulative IPC: 0.480956 (Simulation time: 0 hr 14 min 4 sec) 
Heartbeat CPU 0 instructions: 410000002 cycles: 693555163 heartbeat IPC: 0.507396 cumulative IPC: 0.481766 (Simulation time: 0 hr 14 min 24 sec) 
Heartbeat CPU 0 instructions: 420000000 cycles: 715947984 heartbeat IPC: 0.446572 cumulative IPC: 0.480582 (Simulation time: 0 hr 14 min 44 sec) 
Heartbeat CPU 0 instructions: 430000001 cycles: 736049694 heartbeat IPC: 0.49747 cumulative IPC: 0.481077 (Simulation time: 0 hr 15 min 5 sec) 
Heartbeat CPU 0 instructions: 440000000 cycles: 755791385 heartbeat IPC: 0.506542 cumulative IPC: 0.48179 (Simulation time: 0 hr 15 min 25 sec) 
Heartbeat CPU 0 instructions: 450000002 cycles: 776317698 heartbeat IPC: 0.48718 cumulative IPC: 0.481942 (Simulation time: 0 hr 15 min 45 sec) 
Heartbeat CPU 0 instructions: 460000000 cycles: 796392854 heartbeat IPC: 0.498128 cumulative IPC: 0.482377 (Simulation time: 0 hr 16 min 5 sec) 
Heartbeat CPU 0 instructions: 470000000 cycles: 816191318 heartbeat IPC: 0.50509 cumulative IPC: 0.482964 (Simulation time: 0 hr 16 min 25 sec) 
Heartbeat CPU 0 instructions: 480000003 cycles: 837335572 heartbeat IPC: 0.472942 cumulative IPC: 0.482695 (Simulation time: 0 hr 16 min 46 sec) 
Heartbeat CPU 0 instructions: 490000000 cycles: 857105899 heartbeat IPC: 0.505808 cumulative IPC: 0.483261 (Simulation time: 0 hr 17 min 6 sec) 
Heartbeat CPU 0 instructions: 500000003 cycles: 877325544 heartbeat IPC: 0.494569 cumulative IPC: 0.483538 (Simulation time: 0 hr 17 min 26 sec) 
Heartbeat CPU 0 instructions: 510000000 cycles: 897432581 heartbeat IPC: 0.497338 cumulative IPC: 0.483865 (Simulation time: 0 hr 17 min 46 sec) 
Heartbeat CPU 0 instructions: 520000000 cycles: 917195698 heartbeat IPC: 0.505993 cumulative IPC: 0.48437 (Simulation time: 0 hr 18 min 6 sec) 
Heartbeat CPU 0 instructions: 530000000 cycles: 937398509 heartbeat IPC: 0.494981 cumulative IPC: 0.484611 (Simulation time: 0 hr 18 min 26 sec) 
Heartbeat CPU 0 instructions: 540000002 cycles: 957505733 heartbeat IPC: 0.497334 cumulative IPC: 0.484893 (Simulation time: 0 hr 18 min 46 sec) 
Heartbeat CPU 0 instructions: 550000000 cycles: 977230003 heartbeat IPC: 0.50699 cumulative IPC: 0.485363 (Simulation time: 0 hr 19 min 6 sec) 
Heartbeat CPU 0 instructions: 560000003 cycles: 999701188 heartbeat IPC: 0.445015 cumulative IPC: 0.484408 (Simulation time: 0 hr 19 min 27 sec) 
Heartbeat CPU 0 instructions: 570000001 cycles: 1020270911 heartbeat IPC: 0.486151 cumulative IPC: 0.484445 (Simulation time: 0 hr 19 min 47 sec) 
Heartbeat CPU 0 instructions: 580000000 cycles: 1040501089 heartbeat IPC: 0.494311 cumulative IPC: 0.484647 (Simulation time: 0 hr 20 min 8 sec) 
Heartbeat CPU 0 instructions: 590000000 cycles: 1060387618 heartbeat IPC: 0.502853 cumulative IPC: 0.485005 (Simulation time: 0 hr 20 min 28 sec) 
Heartbeat CPU 0 instructions: 600000000 cycles: 1079961920 heartbeat IPC: 0.510874 cumulative IPC: 0.485497 (Simulation time: 0 hr 20 min 48 sec) 
Heartbeat CPU 0 instructions: 610000001 cycles: 1100556023 heartbeat IPC: 0.485576 cumulative IPC: 0.485498 (Simulation time: 0 hr 21 min 8 sec) 
Heartbeat CPU 0 instructions: 620000001 cycles: 1120420937 heartbeat IPC: 0.5034 cumulative IPC: 0.485831 (Simulation time: 0 hr 21 min 28 sec) 
Heartbeat CPU 0 instructions: 630000000 cycles: 1139993480 heartbeat IPC: 0.51092 cumulative IPC: 0.486281 (Simulation time: 0 hr 21 min 48 sec) 
Heartbeat CPU 0 instructions: 640000002 cycles: 1160530625 heartbeat IPC: 0.486923 cumulative IPC: 0.486293 (Simulation time: 0 hr 22 min 8 sec) 
Heartbeat CPU 0 instructions: 650000001 cycles: 1180504976 heartbeat IPC: 0.500642 cumulative IPC: 0.486547 (Simulation time: 0 hr 22 min 28 sec) 
Heartbeat CPU 0 instructions: 660000000 cycles: 1200187862 heartbeat IPC: 0.508056 cumulative IPC: 0.486915 (Simulation time: 0 hr 22 min 48 sec) 
Heartbeat CPU 0 instructions: 670000001 cycles: 1220770069 heartbeat IPC: 0.485857 cumulative IPC: 0.486896 (Simulation time: 0 hr 23 min 9 sec) 
Heartbeat CPU 0 instructions: 680000000 cycles: 1240733421 heartbeat IPC: 0.500918 cumulative IPC: 0.487131 (Simulation time: 0 hr 23 min 29 sec) 
Heartbeat CPU 0 instructions: 690000000 cycles: 1260404392 heartbeat IPC: 0.508363 cumulative IPC: 0.487476 (Simulation time: 0 hr 23 min 49 sec) 
Heartbeat CPU 0 instructions: 700000003 cycles: 1280881353 heartbeat IPC: 0.488354 cumulative IPC: 0.487491 (Simulation time: 0 hr 24 min 9 sec) 
Heartbeat CPU 0 instructions: 710000001 cycles: 1300903272 heartbeat IPC: 0.499453 cumulative IPC: 0.487682 (Simulation time: 0 hr 24 min 29 sec) 
Heartbeat CPU 0 instructions: 720000000 cycles: 1320593773 heartbeat IPC: 0.507859 cumulative IPC: 0.487995 (Simulation time: 0 hr 24 min 49 sec) 
Heartbeat CPU 0 instructions: 730000000 cycles: 1341039463 heartbeat IPC: 0.489101 cumulative IPC: 0.488013 (Simulation time: 0 hr 25 min 9 sec) 
Heartbeat CPU 0 instructions: 740000003 cycles: 1361187159 heartbeat IPC: 0.496335 cumulative IPC: 0.488141 (Simulation time: 0 hr 25 min 29 sec) 
Heartbeat CPU 0 instructions: 750000003 cycles: 1382000168 heartbeat IPC: 0.480469 cumulative IPC: 0.488021 (Simulation time: 0 hr 25 min 50 sec) 
Heartbeat CPU 0 instructions: 760000001 cycles: 1415621123 heartbeat IPC: 0.297433 cumulative IPC: 0.483328 (Simulation time: 0 hr 26 min 11 sec) 
Heartbeat CPU 0 instructions: 770000000 cycles: 1440808422 heartbeat IPC: 0.397025 cumulative IPC: 0.481765 (Simulation time: 0 hr 26 min 32 sec) 
Heartbeat CPU 0 instructions: 780000001 cycles: 1460909885 heartbeat IPC: 0.497476 cumulative IPC: 0.481989 (Simulation time: 0 hr 26 min 53 sec) 
Heartbeat CPU 0 instructions: 790000003 cycles: 1480715795 heartbeat IPC: 0.5049 cumulative IPC: 0.482306 (Simulation time: 0 hr 27 min 13 sec) 
Heartbeat CPU 0 instructions: 800000000 cycles: 1500911447 heartbeat IPC: 0.495156 cumulative IPC: 0.482485 (Simulation time: 0 hr 27 min 33 sec) 
Heartbeat CPU 0 instructions: 810000001 cycles: 1520925325 heartbeat IPC: 0.499653 cumulative IPC: 0.482719 (Simulation time: 0 hr 27 min 53 sec) 
Heartbeat CPU 0 instructions: 820000001 cycles: 1541215714 heartbeat IPC: 0.492844 cumulative IPC: 0.482856 (Simulation time: 0 hr 28 min 13 sec) 
Heartbeat CPU 0 instructions: 830000001 cycles: 1561476389 heartbeat IPC: 0.493567 cumulative IPC: 0.483 (Simulation time: 0 hr 28 min 33 sec) 
Heartbeat CPU 0 instructions: 840000003 cycles: 1581503817 heartbeat IPC: 0.499315 cumulative IPC: 0.483213 (Simulation time: 0 hr 28 min 53 sec) 
Heartbeat CPU 0 instructions: 850000003 cycles: 1601797706 heartbeat IPC: 0.492759 cumulative IPC: 0.483338 (Simulation time: 0 hr 29 min 14 sec) 
Heartbeat CPU 0 instructions: 860000002 cycles: 1621880703 heartbeat IPC: 0.497934 cumulative IPC: 0.483525 (Simulation time: 0 hr 29 min 34 sec) 
Heartbeat CPU 0 instructions: 870000000 cycles: 1641608614 heartbeat IPC: 0.506896 cumulative IPC: 0.483814 (Simulation time: 0 hr 29 min 54 sec) 
Heartbeat CPU 0 instructions: 880000000 cycles: 1661808069 heartbeat IPC: 0.495063 cumulative IPC: 0.483955 (Simulation time: 0 hr 30 min 14 sec) 
Heartbeat CPU 0 instructions: 890000001 cycles: 1681935229 heartbeat IPC: 0.496841 cumulative IPC: 0.484114 (Simulation time: 0 hr 30 min 34 sec) 
Heartbeat CPU 0 instructions: 900000000 cycles: 1701748358 heartbeat IPC: 0.504716 cumulative IPC: 0.484361 (Simulation time: 0 hr 30 min 54 sec) 
Heartbeat CPU 0 instructions: 910000000 cycles: 1722054888 heartbeat IPC: 0.492452 cumulative IPC: 0.48446 (Simulation time: 0 hr 31 min 15 sec) 
Heartbeat CPU 0 instructions: 920000000 cycles: 1742185345 heartbeat IPC: 0.49676 cumulative IPC: 0.484606 (Simulation time: 0 hr 31 min 35 sec) 
Heartbeat CPU 0 instructions: 930000001 cycles: 1762024839 heartbeat IPC: 0.504045 cumulative IPC: 0.484831 (Simulation time: 0 hr 31 min 55 sec) 
Heartbeat CPU 0 instructions: 940000001 cycles: 1782149459 heartbeat IPC: 0.496904 cumulative IPC: 0.484972 (Simulation time: 0 hr 32 min 15 sec) 
Heartbeat CPU 0 instructions: 950000000 cycles: 1802073626 heartbeat IPC: 0.501903 cumulative IPC: 0.485164 (Simulation time: 0 hr 32 min 35 sec) 
Heartbeat CPU 0 instructions: 960000002 cycles: 1822270433 heartbeat IPC: 0.495128 cumulative IPC: 0.485278 (Simulation time: 0 hr 32 min 55 sec) 
Heartbeat CPU 0 instructions: 970000001 cycles: 1842498409 heartbeat IPC: 0.494365 cumulative IPC: 0.48538 (Simulation time: 0 hr 33 min 16 sec) 
Heartbeat CPU 0 instructions: 980000001 cycles: 1862514410 heartbeat IPC: 0.4996 cumulative IPC: 0.485537 (Simulation time: 0 hr 33 min 36 sec) 
Heartbeat CPU 0 instructions: 990000000 cycles: 1882639055 heartbeat IPC: 0.496903 cumulative IPC: 0.485662 (Simulation time: 0 hr 33 min 56 sec) 
Heartbeat CPU 0 instructions: 1000000000 cycles: 1902567305 heartbeat IPC: 0.5018 cumulative IPC: 0.485836 (Simulation time: 0 hr 34 min 16 sec) 
Heartbeat CPU 0 instructions: 1010000001 cycles: 1922182150 heartbeat IPC: 0.509818 cumulative IPC: 0.486087 (Simulation time: 0 hr 34 min 36 sec) 
Heartbeat CPU 0 instructions: 1020000002 cycles: 1942749623 heartbeat IPC: 0.486205 cumulative IPC: 0.486088 (Simulation time: 0 hr 34 min 56 sec) 
Heartbeat CPU 0 instructions: 1030000002 cycles: 1962594057 heartbeat IPC: 0.50392 cumulative IPC: 0.486273 (Simulation time: 0 hr 35 min 16 sec) 
Heartbeat CPU 0 instructions: 1040000002 cycles: 1982225692 heartbeat IPC: 0.509382 cumulative IPC: 0.486508 (Simulation time: 0 hr 35 min 36 sec) 
Heartbeat CPU 0 instructions: 1050000000 cycles: 2002853595 heartbeat IPC: 0.48478 cumulative IPC: 0.48649 (Simulation time: 0 hr 35 min 57 sec) 
Heartbeat CPU 0 instructions: 1060000000 cycles: 2022701641 heartbeat IPC: 0.503828 cumulative IPC: 0.486664 (Simulation time: 0 hr 36 min 17 sec) 
Heartbeat CPU 0 instructions: 1070000003 cycles: 2042303031 heartbeat IPC: 0.510168 cumulative IPC: 0.486896 (Simulation time: 0 hr 36 min 37 sec) 
Heartbeat CPU 0 instructions: 1080000000 cycles: 2062993370 heartbeat IPC: 0.483317 cumulative IPC: 0.486859 (Simulation time: 0 hr 36 min 57 sec) 
Heartbeat CPU 0 instructions: 1090000000 cycles: 2082827531 heartbeat IPC: 0.504181 cumulative IPC: 0.487028 (Simulation time: 0 hr 37 min 17 sec) 
Heartbeat CPU 0 instructions: 1100000000 cycles: 2102422783 heartbeat IPC: 0.510328 cumulative IPC: 0.48725 (Simulation time: 0 hr 37 min 37 sec) 
Finished CPU 0 instructions: 1000000000 cycles: 2052333502 cumulative IPC: 0.48725 (Simulation time: 0 hr 37 min 37 sec) 

ChampSim completed all CPUs

Region of Interest Statistics

CPU 0 cumulative IPC: 0.48725 instructions: 1000000000 cycles: 2052333502
L1D TOTAL     ACCESS:  302839191  HIT:  286131913  MISS:   16707278
L1D LOAD      ACCESS:  203013845  HIT:  186316540  MISS:   16697305
L1D RFO       ACCESS:   99825346  HIT:   99815373  MISS:       9973
L1D PREFETCH  ACCESS:          0  HIT:          0  MISS:          0
L1D WRITEBACK ACCESS:          0  HIT:          0  MISS:          0
L1D PREFETCH  REQUESTED:          0  ISSUED:          0  USEFUL:          0  USELESS:          0
L1D AVERAGE MISS LATENCY: 64.7085 cycles
L1I TOTAL     ACCESS:  151460091  HIT:  151460090  MISS:          1
L1I LOAD      ACCESS:  151460091  HIT:  151460090  MISS:          1
L1I RFO       ACCESS:          0  HIT:          0  MISS:          0
L1I PREFETCH  ACCESS:          0  HIT:          0  MISS:          0
L1I WRITEBACK ACCESS:          0  HIT:          0  MISS:          0
L1I PREFETCH  REQUESTED:          0  ISSUED:          0  USEFUL:          0  USELESS:          0
L1I AVERAGE MISS LATENCY: 215 cycles
L2C TOTAL     ACCESS:   16874437  HIT:    8488876  MISS:    8385561
L2C LOAD      ACCESS:   16697306  HIT:    8320000  MISS:    8377306
L2C RFO       ACCESS:       9973  HIT:       1764  MISS:       8209
L2C PREFETCH  ACCESS:          0  HIT:          0  MISS:          0
L2C WRITEBACK ACCESS:     167158  HIT:     167112  MISS:         46
L2C PREFETCH  REQUESTED:          0  ISSUED:          0  USEFUL:          0  USELESS:          0
L2C AVERAGE MISS LATENCY: 98.9164 cycles
LLC TOTAL     ACCESS:    8466932  HIT:    1108845  MISS:    7358087
LLC LOAD      ACCESS:    8377306  HIT:    1076990  MISS:    7300316
LLC RFO       ACCESS:       8209  HIT:        510  MISS:       7699
LLC PREFETCH  ACCESS:          0  HIT:          0  MISS:          0
LLC WRITEBACK ACCESS:      81417  HIT:      31345  MISS:      50072
LLC PREFETCH  REQUESTED:          0  ISSUED:          0  USEFUL:          0  USELESS:          0
LLC AVERAGE MISS LATENCY: 78.4961 cycles
Major fault: 0 Minor fault: 12421
==============================
Perceptron RRIP Stats:
   Num Updates: 9315388
   Num Trains:  29240
==============================
perceptron #0: -2 0 -2 0 2 -2 2 2 2 2 -14 

perceptron #1: 0 0 0 2 2 0 2 0 2 2 -16 

perceptron #2: -1 1 -1 -1 1 -1 3 1 3 3 -13 

perceptron #3: -2 0 -2 0 0 0 2 0 0 2 -14 

perceptron #4: -1 -1 -1 1 1 -1 1 1 1 -1 -11 

perceptron #5: 0 0 -2 0 2 0 0 2 0 0 -12 

perceptron #6: 0 0 -2 0 0 -2 0 0 2 0 -12 

perceptron #7: -1 1 -1 1 -1 -1 3 1 1 1 -13 

perceptron #8: -2 0 -2 0 0 -2 0 0 2 2 -16 

perceptron #9: -2 0 0 0 0 0 0 0 2 2 -12 

perceptron #10: -2 2 -2 -2 2 -2 0 0 0 0 -14 

perceptron #11: -1 1 -3 -1 1 -1 3 1 -1 3 -13 

perceptron #12: 0 0 0 0 0 -2 0 2 0 0 -14 

perceptron #13: 2 0 -2 0 0 -2 2 2 0 2 -14 

perceptron #14: -1 1 1 -1 1 -1 1 1 1 1 -9 

perceptron #15: 0 2 0 0 0 0 0 0 0 0 -12 

perceptron #16: 0 0 -2 0 0 -2 0 0 0 0 -12 

perceptron #17: -2 2 -2 0 0 -2 2 2 0 2 -12 

perceptron #18: 1 1 1 -1 1 -1 1 3 -1 3 -15 

perceptron #19: -2 0 -2 -2 0 -2 2 2 0 4 -16 

perceptron #20: -1 1 1 -1 1 1 1 -1 -1 1 -11 

perceptron #21: 0 2 -2 -2 0 -2 2 2 0 2 -12 

perceptron #22: -1 -1 -1 -1 -1 1 1 1 1 1 -11 

perceptron #23: 0 0 0 -4 0 0 0 0 0 0 -14 

perceptron #24: 0 2 0 0 0 0 0 0 2 2 -12 

perceptron #25: -1 1 1 -1 1 1 1 1 -1 1 -11 

perceptron #26: -1 -1 -1 1 -1 1 1 3 -1 -1 -11 

perceptron #27: -2 2 0 -2 2 0 0 0 0 4 -14 

perceptron #28: -1 1 -3 -1 1 -1 3 3 1 3 -13 

perceptron #29: 0 2 -2 -2 2 0 2 0 2 2 -12 

perceptron #30: -1 1 -3 1 1 1 1 1 1 1 -15 

perceptron #31: 0 0 0 -2 0 -2 0 0 0 2 -12 


DRAM Statistics
 CHANNEL 0
 RQ ROW_BUFFER_HIT:    6728600  ROW_BUFFER_MISS:     579415
 DBUS_CONGESTED:      24785
 WQ ROW_BUFFER_HIT:      18317  ROW_BUFFER_MISS:      38485  FULL:          0

 AVG_CONGESTED_CYCLE: 6

CPU 0 Branch Prediction Accuracy: 94.6645% MPKI: 12.6908 Average ROB Occupancy at Mispredict: 53.4293

Branch types
NOT_BRANCH: 762143497 76.2143%
BRANCH_DIRECT_JUMP: 24833668 2.48337%
BRANCH_INDIRECT: 0 0%
BRANCH_CONDITIONAL: 188060658 18.8061%
BRANCH_DIRECT_CALL: 12480831 1.24808%
BRANCH_INDIRECT_CALL: 86 8.6e-06%
BRANCH_RETURN: 12480917 1.24809%
BRANCH_OTHER: 0 0%

