
*** ChampSim Multicore Out-of-Order Simulator ***

Warmup Instructions: 100000000
Simulation Instructions: 1000000000
Number of CPUs: 1
LLC sets: 2048
LLC ways: 16
Off-chip DRAM Size: 4096 MB Channels: 1 Width: 64-bit Data Rate: 3200 MT/s

CPU 0 runs /scratch/user/kevin.weston/dpc3-traces/602.champsimtrace.xz
CPU 0 Bimodal branch predictor
Initialize RRPV
Initialize PRRIP state
Heartbeat CPU 0 instructions: 10000001 cycles: 5015429 heartbeat IPC: 1.99385 cumulative IPC: 1.99385 (Simulation time: 0 hr 0 min 24 sec) 
Heartbeat CPU 0 instructions: 20000002 cycles: 10021593 heartbeat IPC: 1.99754 cumulative IPC: 1.99569 (Simulation time: 0 hr 0 min 48 sec) 
Heartbeat CPU 0 instructions: 30000000 cycles: 15029876 heartbeat IPC: 1.99669 cumulative IPC: 1.99602 (Simulation time: 0 hr 1 min 11 sec) 
Heartbeat CPU 0 instructions: 40000002 cycles: 20050931 heartbeat IPC: 1.99161 cumulative IPC: 1.99492 (Simulation time: 0 hr 1 min 35 sec) 
Heartbeat CPU 0 instructions: 50000000 cycles: 25062480 heartbeat IPC: 1.99539 cumulative IPC: 1.99501 (Simulation time: 0 hr 1 min 58 sec) 
Heartbeat CPU 0 instructions: 60000000 cycles: 30079615 heartbeat IPC: 1.99317 cumulative IPC: 1.99471 (Simulation time: 0 hr 2 min 22 sec) 
Heartbeat CPU 0 instructions: 70000002 cycles: 35086352 heartbeat IPC: 1.99731 cumulative IPC: 1.99508 (Simulation time: 0 hr 2 min 47 sec) 
Heartbeat CPU 0 instructions: 80000000 cycles: 40090009 heartbeat IPC: 1.99854 cumulative IPC: 1.99551 (Simulation time: 0 hr 3 min 10 sec) 
Heartbeat CPU 0 instructions: 90000000 cycles: 45102160 heartbeat IPC: 1.99515 cumulative IPC: 1.99547 (Simulation time: 0 hr 3 min 34 sec) 
Heartbeat CPU 0 instructions: 100000000 cycles: 50090336 heartbeat IPC: 2.00474 cumulative IPC: 1.99639 (Simulation time: 0 hr 3 min 56 sec) 

Warmup complete CPU 0 instructions: 100000004 cycles: 50090337 (Simulation time: 0 hr 3 min 56 sec) 

Heartbeat CPU 0 instructions: 110000000 cycles: 70160544 heartbeat IPC: 0.498251 cumulative IPC: 0.498251 (Simulation time: 0 hr 4 min 16 sec) 
Heartbeat CPU 0 instructions: 120000000 cycles: 90524683 heartbeat IPC: 0.491059 cumulative IPC: 0.494629 (Simulation time: 0 hr 4 min 35 sec) 
Heartbeat CPU 0 instructions: 130000001 cycles: 112227493 heartbeat IPC: 0.46077 cumulative IPC: 0.482803 (Simulation time: 0 hr 4 min 56 sec) 
Heartbeat CPU 0 instructions: 140000001 cycles: 132649076 heartbeat IPC: 0.489678 cumulative IPC: 0.484503 (Simulation time: 0 hr 5 min 16 sec) 
Heartbeat CPU 0 instructions: 150000000 cycles: 153432274 heartbeat IPC: 0.481158 cumulative IPC: 0.483831 (Simulation time: 0 hr 5 min 37 sec) 
Heartbeat CPU 0 instructions: 160000003 cycles: 174229293 heartbeat IPC: 0.480838 cumulative IPC: 0.483329 (Simulation time: 0 hr 5 min 57 sec) 
Heartbeat CPU 0 instructions: 170000000 cycles: 194199980 heartbeat IPC: 0.500734 cumulative IPC: 0.485741 (Simulation time: 0 hr 6 min 17 sec) 
Heartbeat CPU 0 instructions: 180000000 cycles: 214523927 heartbeat IPC: 0.49203 cumulative IPC: 0.486519 (Simulation time: 0 hr 6 min 36 sec) 
Heartbeat CPU 0 instructions: 190000002 cycles: 248609535 heartbeat IPC: 0.293379 cumulative IPC: 0.453357 (Simulation time: 0 hr 6 min 57 sec) 
Heartbeat CPU 0 instructions: 200000000 cycles: 273502227 heartbeat IPC: 0.401724 cumulative IPC: 0.447604 (Simulation time: 0 hr 7 min 18 sec) 
Heartbeat CPU 0 instructions: 210000000 cycles: 293589751 heartbeat IPC: 0.497821 cumulative IPC: 0.451746 (Simulation time: 0 hr 7 min 37 sec) 
Heartbeat CPU 0 instructions: 220000000 cycles: 313931410 heartbeat IPC: 0.491602 cumulative IPC: 0.454819 (Simulation time: 0 hr 7 min 57 sec) 
Heartbeat CPU 0 instructions: 230000002 cycles: 333806327 heartbeat IPC: 0.503147 cumulative IPC: 0.458205 (Simulation time: 0 hr 8 min 17 sec) 
Heartbeat CPU 0 instructions: 240000001 cycles: 353952841 heartbeat IPC: 0.496364 cumulative IPC: 0.460735 (Simulation time: 0 hr 8 min 37 sec) 
Heartbeat CPU 0 instructions: 250000000 cycles: 374508538 heartbeat IPC: 0.486483 cumulative IPC: 0.462366 (Simulation time: 0 hr 8 min 57 sec) 
Heartbeat CPU 0 instructions: 260000000 cycles: 394637073 heartbeat IPC: 0.496807 cumulative IPC: 0.464378 (Simulation time: 0 hr 9 min 16 sec) 
Heartbeat CPU 0 instructions: 270000000 cycles: 414824873 heartbeat IPC: 0.495349 cumulative IPC: 0.466092 (Simulation time: 0 hr 9 min 37 sec) 
Heartbeat CPU 0 instructions: 280000001 cycles: 434685623 heartbeat IPC: 0.503506 cumulative IPC: 0.468024 (Simulation time: 0 hr 9 min 56 sec) 
Heartbeat CPU 0 instructions: 290000002 cycles: 454860871 heartbeat IPC: 0.495657 cumulative IPC: 0.469402 (Simulation time: 0 hr 10 min 16 sec) 
Heartbeat CPU 0 instructions: 300000000 cycles: 475439382 heartbeat IPC: 0.485944 cumulative IPC: 0.470202 (Simulation time: 0 hr 10 min 36 sec) 
Heartbeat CPU 0 instructions: 310000000 cycles: 495247047 heartbeat IPC: 0.504855 cumulative IPC: 0.471744 (Simulation time: 0 hr 10 min 56 sec) 
Heartbeat CPU 0 instructions: 320000001 cycles: 515397167 heartbeat IPC: 0.496275 cumulative IPC: 0.472806 (Simulation time: 0 hr 11 min 16 sec) 
Heartbeat CPU 0 instructions: 330000000 cycles: 535932240 heartbeat IPC: 0.486972 cumulative IPC: 0.473405 (Simulation time: 0 hr 11 min 36 sec) 
Heartbeat CPU 0 instructions: 340000002 cycles: 555726939 heartbeat IPC: 0.505186 cumulative IPC: 0.474649 (Simulation time: 0 hr 11 min 56 sec) 
Heartbeat CPU 0 instructions: 350000000 cycles: 575870365 heartbeat IPC: 0.49644 cumulative IPC: 0.475484 (Simulation time: 0 hr 12 min 16 sec) 
Heartbeat CPU 0 instructions: 360000000 cycles: 596446761 heartbeat IPC: 0.485994 cumulative IPC: 0.47588 (Simulation time: 0 hr 12 min 36 sec) 
Heartbeat CPU 0 instructions: 370000000 cycles: 616265460 heartbeat IPC: 0.504574 cumulative IPC: 0.476884 (Simulation time: 0 hr 12 min 55 sec) 
Heartbeat CPU 0 instructions: 380000000 cycles: 636396659 heartbeat IPC: 0.496741 cumulative IPC: 0.477566 (Simulation time: 0 hr 13 min 15 sec) 
Heartbeat CPU 0 instructions: 390000000 cycles: 657093920 heartbeat IPC: 0.483156 cumulative IPC: 0.477757 (Simulation time: 0 hr 13 min 35 sec) 
Heartbeat CPU 0 instructions: 400000002 cycles: 676938475 heartbeat IPC: 0.503917 cumulative IPC: 0.478585 (Simulation time: 0 hr 13 min 55 sec) 
Heartbeat CPU 0 instructions: 410000002 cycles: 697110425 heartbeat IPC: 0.495738 cumulative IPC: 0.47912 (Simulation time: 0 hr 14 min 14 sec) 
Heartbeat CPU 0 instructions: 420000000 cycles: 719438857 heartbeat IPC: 0.447859 cumulative IPC: 0.478077 (Simulation time: 0 hr 14 min 34 sec) 
Heartbeat CPU 0 instructions: 430000001 cycles: 739245988 heartbeat IPC: 0.504869 cumulative IPC: 0.478847 (Simulation time: 0 hr 14 min 54 sec) 
Heartbeat CPU 0 instructions: 440000000 cycles: 759408941 heartbeat IPC: 0.495959 cumulative IPC: 0.479333 (Simulation time: 0 hr 15 min 14 sec) 
Heartbeat CPU 0 instructions: 450000002 cycles: 779965656 heartbeat IPC: 0.486459 cumulative IPC: 0.479534 (Simulation time: 0 hr 15 min 34 sec) 
Heartbeat CPU 0 instructions: 460000000 cycles: 799726449 heartbeat IPC: 0.506052 cumulative IPC: 0.480233 (Simulation time: 0 hr 15 min 53 sec) 
Heartbeat CPU 0 instructions: 470000000 cycles: 819893572 heartbeat IPC: 0.495857 cumulative IPC: 0.480642 (Simulation time: 0 hr 16 min 13 sec) 
Heartbeat CPU 0 instructions: 480000003 cycles: 840894058 heartbeat IPC: 0.47618 cumulative IPC: 0.480524 (Simulation time: 0 hr 16 min 33 sec) 
Heartbeat CPU 0 instructions: 490000000 cycles: 860919149 heartbeat IPC: 0.499373 cumulative IPC: 0.480989 (Simulation time: 0 hr 16 min 53 sec) 
Heartbeat CPU 0 instructions: 500000003 cycles: 881052541 heartbeat IPC: 0.496687 cumulative IPC: 0.48137 (Simulation time: 0 hr 17 min 14 sec) 
Heartbeat CPU 0 instructions: 510000000 cycles: 900888127 heartbeat IPC: 0.504144 cumulative IPC: 0.481901 (Simulation time: 0 hr 17 min 34 sec) 
Heartbeat CPU 0 instructions: 520000000 cycles: 921034262 heartbeat IPC: 0.496373 cumulative IPC: 0.482235 (Simulation time: 0 hr 17 min 54 sec) 
Heartbeat CPU 0 instructions: 530000000 cycles: 941172628 heartbeat IPC: 0.496565 cumulative IPC: 0.482559 (Simulation time: 0 hr 18 min 13 sec) 
Heartbeat CPU 0 instructions: 540000002 cycles: 961015994 heartbeat IPC: 0.503947 cumulative IPC: 0.483025 (Simulation time: 0 hr 18 min 33 sec) 
Heartbeat CPU 0 instructions: 550000000 cycles: 981117035 heartbeat IPC: 0.497487 cumulative IPC: 0.483337 (Simulation time: 0 hr 18 min 53 sec) 
Heartbeat CPU 0 instructions: 560000003 cycles: 1003477251 heartbeat IPC: 0.447223 cumulative IPC: 0.48249 (Simulation time: 0 hr 19 min 13 sec) 
Heartbeat CPU 0 instructions: 570000001 cycles: 1023779794 heartbeat IPC: 0.492549 cumulative IPC: 0.4827 (Simulation time: 0 hr 19 min 33 sec) 
Heartbeat CPU 0 instructions: 580000000 cycles: 1044351852 heartbeat IPC: 0.486096 cumulative IPC: 0.48277 (Simulation time: 0 hr 19 min 54 sec) 
Heartbeat CPU 0 instructions: 590000000 cycles: 1064060362 heartbeat IPC: 0.507395 cumulative IPC: 0.483249 (Simulation time: 0 hr 20 min 14 sec) 
Heartbeat CPU 0 instructions: 600000000 cycles: 1083971207 heartbeat IPC: 0.502239 cumulative IPC: 0.483615 (Simulation time: 0 hr 20 min 34 sec) 
Heartbeat CPU 0 instructions: 610000001 cycles: 1104479320 heartbeat IPC: 0.487612 cumulative IPC: 0.483692 (Simulation time: 0 hr 20 min 54 sec) 
Heartbeat CPU 0 instructions: 620000001 cycles: 1124171523 heartbeat IPC: 0.507815 cumulative IPC: 0.484135 (Simulation time: 0 hr 21 min 13 sec) 
Heartbeat CPU 0 instructions: 630000000 cycles: 1144058980 heartbeat IPC: 0.502829 cumulative IPC: 0.484475 (Simulation time: 0 hr 21 min 33 sec) 
Heartbeat CPU 0 instructions: 640000002 cycles: 1164605618 heartbeat IPC: 0.486698 cumulative IPC: 0.484516 (Simulation time: 0 hr 21 min 53 sec) 
Heartbeat CPU 0 instructions: 650000001 cycles: 1184319982 heartbeat IPC: 0.507244 cumulative IPC: 0.484911 (Simulation time: 0 hr 22 min 13 sec) 
Heartbeat CPU 0 instructions: 660000000 cycles: 1204330746 heartbeat IPC: 0.499731 cumulative IPC: 0.485168 (Simulation time: 0 hr 22 min 33 sec) 
Heartbeat CPU 0 instructions: 670000001 cycles: 1224914089 heartbeat IPC: 0.48583 cumulative IPC: 0.485179 (Simulation time: 0 hr 22 min 54 sec) 
Heartbeat CPU 0 instructions: 680000000 cycles: 1244615030 heartbeat IPC: 0.50759 cumulative IPC: 0.485549 (Simulation time: 0 hr 23 min 14 sec) 
Heartbeat CPU 0 instructions: 690000000 cycles: 1264618783 heartbeat IPC: 0.499906 cumulative IPC: 0.485785 (Simulation time: 0 hr 23 min 34 sec) 
Heartbeat CPU 0 instructions: 700000003 cycles: 1285157145 heartbeat IPC: 0.486894 cumulative IPC: 0.485804 (Simulation time: 0 hr 23 min 54 sec) 
Heartbeat CPU 0 instructions: 710000001 cycles: 1304894712 heartbeat IPC: 0.506648 cumulative IPC: 0.486132 (Simulation time: 0 hr 24 min 13 sec) 
Heartbeat CPU 0 instructions: 720000000 cycles: 1324851809 heartbeat IPC: 0.501075 cumulative IPC: 0.486365 (Simulation time: 0 hr 24 min 33 sec) 
Heartbeat CPU 0 instructions: 730000000 cycles: 1345171385 heartbeat IPC: 0.492136 cumulative IPC: 0.486456 (Simulation time: 0 hr 24 min 53 sec) 
Heartbeat CPU 0 instructions: 740000003 cycles: 1365536229 heartbeat IPC: 0.491042 cumulative IPC: 0.486527 (Simulation time: 0 hr 25 min 13 sec) 
Heartbeat CPU 0 instructions: 750000003 cycles: 1386280245 heartbeat IPC: 0.482067 cumulative IPC: 0.486458 (Simulation time: 0 hr 25 min 33 sec) 
Heartbeat CPU 0 instructions: 760000001 cycles: 1419588500 heartbeat IPC: 0.300226 cumulative IPC: 0.481928 (Simulation time: 0 hr 25 min 54 sec) 
Heartbeat CPU 0 instructions: 770000000 cycles: 1445159716 heartbeat IPC: 0.391065 cumulative IPC: 0.480263 (Simulation time: 0 hr 26 min 15 sec) 
Heartbeat CPU 0 instructions: 780000001 cycles: 1464992549 heartbeat IPC: 0.504214 cumulative IPC: 0.480599 (Simulation time: 0 hr 26 min 35 sec) 
Heartbeat CPU 0 instructions: 790000003 cycles: 1485263914 heartbeat IPC: 0.493307 cumulative IPC: 0.480778 (Simulation time: 0 hr 26 min 55 sec) 
Heartbeat CPU 0 instructions: 800000000 cycles: 1505403830 heartbeat IPC: 0.496526 cumulative IPC: 0.480996 (Simulation time: 0 hr 27 min 14 sec) 
Heartbeat CPU 0 instructions: 810000001 cycles: 1525323133 heartbeat IPC: 0.502026 cumulative IPC: 0.48128 (Simulation time: 0 hr 27 min 34 sec) 
Heartbeat CPU 0 instructions: 820000001 cycles: 1545899681 heartbeat IPC: 0.48599 cumulative IPC: 0.481345 (Simulation time: 0 hr 27 min 54 sec) 
Heartbeat CPU 0 instructions: 830000001 cycles: 1566014291 heartbeat IPC: 0.497151 cumulative IPC: 0.481555 (Simulation time: 0 hr 28 min 14 sec) 
Heartbeat CPU 0 instructions: 840000003 cycles: 1586336671 heartbeat IPC: 0.492068 cumulative IPC: 0.481694 (Simulation time: 0 hr 28 min 34 sec) 
Heartbeat CPU 0 instructions: 850000003 cycles: 1606569716 heartbeat IPC: 0.494241 cumulative IPC: 0.481857 (Simulation time: 0 hr 28 min 54 sec) 
Heartbeat CPU 0 instructions: 860000002 cycles: 1626338565 heartbeat IPC: 0.505846 cumulative IPC: 0.482158 (Simulation time: 0 hr 29 min 14 sec) 
Heartbeat CPU 0 instructions: 870000000 cycles: 1646478502 heartbeat IPC: 0.496526 cumulative IPC: 0.482339 (Simulation time: 0 hr 29 min 34 sec) 
Heartbeat CPU 0 instructions: 880000000 cycles: 1666716621 heartbeat IPC: 0.494117 cumulative IPC: 0.482486 (Simulation time: 0 hr 29 min 54 sec) 
Heartbeat CPU 0 instructions: 890000001 cycles: 1686551847 heartbeat IPC: 0.504154 cumulative IPC: 0.482749 (Simulation time: 0 hr 30 min 14 sec) 
Heartbeat CPU 0 instructions: 900000000 cycles: 1706804843 heartbeat IPC: 0.493754 cumulative IPC: 0.482883 (Simulation time: 0 hr 30 min 33 sec) 
Heartbeat CPU 0 instructions: 910000000 cycles: 1727092700 heartbeat IPC: 0.492906 cumulative IPC: 0.483005 (Simulation time: 0 hr 30 min 53 sec) 
Heartbeat CPU 0 instructions: 920000000 cycles: 1746938757 heartbeat IPC: 0.503878 cumulative IPC: 0.483249 (Simulation time: 0 hr 31 min 13 sec) 
Heartbeat CPU 0 instructions: 930000001 cycles: 1767212010 heartbeat IPC: 0.493261 cumulative IPC: 0.483367 (Simulation time: 0 hr 31 min 33 sec) 
Heartbeat CPU 0 instructions: 940000001 cycles: 1787257246 heartbeat IPC: 0.498872 cumulative IPC: 0.483546 (Simulation time: 0 hr 31 min 53 sec) 
Heartbeat CPU 0 instructions: 950000000 cycles: 1807173443 heartbeat IPC: 0.502104 cumulative IPC: 0.483756 (Simulation time: 0 hr 32 min 13 sec) 
Heartbeat CPU 0 instructions: 960000002 cycles: 1827576498 heartbeat IPC: 0.490123 cumulative IPC: 0.483829 (Simulation time: 0 hr 32 min 33 sec) 
Heartbeat CPU 0 instructions: 970000001 cycles: 1847749135 heartbeat IPC: 0.495721 cumulative IPC: 0.483963 (Simulation time: 0 hr 32 min 53 sec) 
Heartbeat CPU 0 instructions: 980000001 cycles: 1867633962 heartbeat IPC: 0.502896 cumulative IPC: 0.48417 (Simulation time: 0 hr 33 min 13 sec) 
Heartbeat CPU 0 instructions: 990000000 cycles: 1888038962 heartbeat IPC: 0.490076 cumulative IPC: 0.484236 (Simulation time: 0 hr 33 min 34 sec) 
Heartbeat CPU 0 instructions: 1000000000 cycles: 1907830265 heartbeat IPC: 0.505272 cumulative IPC: 0.48446 (Simulation time: 0 hr 33 min 54 sec) 
Heartbeat CPU 0 instructions: 1010000001 cycles: 1927698935 heartbeat IPC: 0.503305 cumulative IPC: 0.484659 (Simulation time: 0 hr 34 min 14 sec) 
Heartbeat CPU 0 instructions: 1020000002 cycles: 1948241060 heartbeat IPC: 0.486805 cumulative IPC: 0.484682 (Simulation time: 0 hr 34 min 34 sec) 
Heartbeat CPU 0 instructions: 1030000002 cycles: 1967910999 heartbeat IPC: 0.50839 cumulative IPC: 0.484925 (Simulation time: 0 hr 34 min 54 sec) 
Heartbeat CPU 0 instructions: 1040000002 cycles: 1987807224 heartbeat IPC: 0.502608 cumulative IPC: 0.485107 (Simulation time: 0 hr 35 min 14 sec) 
Heartbeat CPU 0 instructions: 1050000000 cycles: 2008424342 heartbeat IPC: 0.485034 cumulative IPC: 0.485106 (Simulation time: 0 hr 35 min 34 sec) 
Heartbeat CPU 0 instructions: 1060000000 cycles: 2028070245 heartbeat IPC: 0.509012 cumulative IPC: 0.485344 (Simulation time: 0 hr 35 min 53 sec) 
Heartbeat CPU 0 instructions: 1070000003 cycles: 2047922455 heartbeat IPC: 0.503722 cumulative IPC: 0.485526 (Simulation time: 0 hr 36 min 13 sec) 
Heartbeat CPU 0 instructions: 1080000000 cycles: 2068618713 heartbeat IPC: 0.483179 cumulative IPC: 0.485502 (Simulation time: 0 hr 36 min 33 sec) 
Heartbeat CPU 0 instructions: 1090000000 cycles: 2088246772 heartbeat IPC: 0.509475 cumulative IPC: 0.485733 (Simulation time: 0 hr 36 min 53 sec) 
Heartbeat CPU 0 instructions: 1100000000 cycles: 2108076891 heartbeat IPC: 0.504283 cumulative IPC: 0.485912 (Simulation time: 0 hr 37 min 13 sec) 
Finished CPU 0 instructions: 1000000000 cycles: 2057986557 cumulative IPC: 0.485912 (Simulation time: 0 hr 37 min 13 sec) 

ChampSim completed all CPUs

Region of Interest Statistics

CPU 0 cumulative IPC: 0.485912 instructions: 1000000000 cycles: 2057986557
L1D TOTAL     ACCESS:  302841171  HIT:  286133892  MISS:   16707279
L1D LOAD      ACCESS:  203015434  HIT:  186318128  MISS:   16697306
L1D RFO       ACCESS:   99825737  HIT:   99815764  MISS:       9973
L1D PREFETCH  ACCESS:          0  HIT:          0  MISS:          0
L1D WRITEBACK ACCESS:          0  HIT:          0  MISS:          0
L1D PREFETCH  REQUESTED:          0  ISSUED:          0  USEFUL:          0  USELESS:          0
L1D AVERAGE MISS LATENCY: 65.0519 cycles
L1I TOTAL     ACCESS:  151459563  HIT:  151459562  MISS:          1
L1I LOAD      ACCESS:  151459563  HIT:  151459562  MISS:          1
L1I RFO       ACCESS:          0  HIT:          0  MISS:          0
L1I PREFETCH  ACCESS:          0  HIT:          0  MISS:          0
L1I WRITEBACK ACCESS:          0  HIT:          0  MISS:          0
L1I PREFETCH  REQUESTED:          0  ISSUED:          0  USEFUL:          0  USELESS:          0
L1I AVERAGE MISS LATENCY: 215 cycles
L2C TOTAL     ACCESS:   16874438  HIT:    8488877  MISS:    8385561
L2C LOAD      ACCESS:   16697307  HIT:    8320001  MISS:    8377306
L2C RFO       ACCESS:       9973  HIT:       1764  MISS:       8209
L2C PREFETCH  ACCESS:          0  HIT:          0  MISS:          0
L2C WRITEBACK ACCESS:     167158  HIT:     167112  MISS:         46
L2C PREFETCH  REQUESTED:          0  ISSUED:          0  USEFUL:          0  USELESS:          0
L2C AVERAGE MISS LATENCY: 99.5999 cycles
LLC TOTAL     ACCESS:    8466932  HIT:    1038937  MISS:    7427995
LLC LOAD      ACCESS:    8377306  HIT:    1010981  MISS:    7366325
LLC RFO       ACCESS:       8209  HIT:        337  MISS:       7872
LLC PREFETCH  ACCESS:          0  HIT:          0  MISS:          0
LLC WRITEBACK ACCESS:      81417  HIT:      27619  MISS:      53798
LLC PREFETCH  REQUESTED:          0  ISSUED:          0  USEFUL:          0  USELESS:          0
LLC AVERAGE MISS LATENCY: 78.529 cycles
Major fault: 0 Minor fault: 12421
==============================
Perceptron RRIP Stats:
   Num Updates: 9315388
   Num Trains:  16249
==============================
perceptron #0: -2 0 0 0 0 0 2 -2 -2 0 0 2 2 4 0 -20 

perceptron #1: 2 0 0 0 -2 0 2 0 0 -2 -4 2 2 0 -4 -20 

perceptron #2: 1 1 -1 -1 -1 -1 -1 -1 1 -1 1 3 -1 3 1 -19 

perceptron #3: -2 -2 0 0 -2 0 -2 0 2 0 -2 2 2 0 0 -18 


DRAM Statistics
 CHANNEL 0
 RQ ROW_BUFFER_HIT:    6784501  ROW_BUFFER_MISS:     589696
 DBUS_CONGESTED:      23911
 WQ ROW_BUFFER_HIT:      18051  ROW_BUFFER_MISS:      43484  FULL:          0

 AVG_CONGESTED_CYCLE: 6

CPU 0 Branch Prediction Accuracy: 94.6645% MPKI: 12.6908 Average ROB Occupancy at Mispredict: 53.4279

Branch types
NOT_BRANCH: 762143497 76.2143%
BRANCH_DIRECT_JUMP: 24833668 2.48337%
BRANCH_INDIRECT: 0 0%
BRANCH_CONDITIONAL: 188060658 18.8061%
BRANCH_DIRECT_CALL: 12480831 1.24808%
BRANCH_INDIRECT_CALL: 86 8.6e-06%
BRANCH_RETURN: 12480917 1.24809%
BRANCH_OTHER: 0 0%

