
*** ChampSim Multicore Out-of-Order Simulator ***

Warmup Instructions: 100000000
Simulation Instructions: 1000000000
Number of CPUs: 1
LLC sets: 2048
LLC ways: 16
Off-chip DRAM Size: 4096 MB Channels: 1 Width: 64-bit Data Rate: 3200 MT/s

CPU 0 runs /scratch/user/kevin.weston/dpc3-traces/603.champsimtrace.xz
CPU 0 Bimodal branch predictor
Initialize RRPV
Initialize PRRIP state
Heartbeat CPU 0 instructions: 10000000 cycles: 3409066 heartbeat IPC: 2.93335 cumulative IPC: 2.93335 (Simulation time: 0 hr 0 min 17 sec) 
Heartbeat CPU 0 instructions: 20000003 cycles: 6807784 heartbeat IPC: 2.94229 cumulative IPC: 2.93781 (Simulation time: 0 hr 0 min 36 sec) 
Heartbeat CPU 0 instructions: 30000002 cycles: 10206664 heartbeat IPC: 2.94215 cumulative IPC: 2.93926 (Simulation time: 0 hr 0 min 55 sec) 
Heartbeat CPU 0 instructions: 40000002 cycles: 13618405 heartbeat IPC: 2.93105 cumulative IPC: 2.9372 (Simulation time: 0 hr 1 min 12 sec) 
Heartbeat CPU 0 instructions: 50000003 cycles: 17027530 heartbeat IPC: 2.9333 cumulative IPC: 2.93642 (Simulation time: 0 hr 1 min 30 sec) 
Heartbeat CPU 0 instructions: 60000003 cycles: 20427720 heartbeat IPC: 2.94101 cumulative IPC: 2.93719 (Simulation time: 0 hr 1 min 46 sec) 
Heartbeat CPU 0 instructions: 70000002 cycles: 23820400 heartbeat IPC: 2.94752 cumulative IPC: 2.93866 (Simulation time: 0 hr 2 min 4 sec) 
Heartbeat CPU 0 instructions: 80000000 cycles: 27213974 heartbeat IPC: 2.94675 cumulative IPC: 2.93967 (Simulation time: 0 hr 2 min 20 sec) 
Heartbeat CPU 0 instructions: 90000003 cycles: 30612798 heartbeat IPC: 2.94219 cumulative IPC: 2.93995 (Simulation time: 0 hr 2 min 37 sec) 
Heartbeat CPU 0 instructions: 100000000 cycles: 33993266 heartbeat IPC: 2.95817 cumulative IPC: 2.94176 (Simulation time: 0 hr 2 min 54 sec) 

Warmup complete CPU 0 instructions: 100000004 cycles: 33993267 (Simulation time: 0 hr 2 min 54 sec) 

Heartbeat CPU 0 instructions: 110000000 cycles: 42458647 heartbeat IPC: 1.18128 cumulative IPC: 1.18128 (Simulation time: 0 hr 3 min 7 sec) 
Heartbeat CPU 0 instructions: 120000002 cycles: 50964775 heartbeat IPC: 1.17562 cumulative IPC: 1.17845 (Simulation time: 0 hr 3 min 19 sec) 
Heartbeat CPU 0 instructions: 130000001 cycles: 59574238 heartbeat IPC: 1.16151 cumulative IPC: 1.17275 (Simulation time: 0 hr 3 min 32 sec) 
Heartbeat CPU 0 instructions: 140000000 cycles: 68382369 heartbeat IPC: 1.13531 cumulative IPC: 1.16316 (Simulation time: 0 hr 3 min 44 sec) 
Heartbeat CPU 0 instructions: 150000001 cycles: 77006082 heartbeat IPC: 1.15959 cumulative IPC: 1.16244 (Simulation time: 0 hr 3 min 57 sec) 
Heartbeat CPU 0 instructions: 160000000 cycles: 85559146 heartbeat IPC: 1.16917 cumulative IPC: 1.16356 (Simulation time: 0 hr 4 min 9 sec) 
Heartbeat CPU 0 instructions: 170000000 cycles: 94293767 heartbeat IPC: 1.14487 cumulative IPC: 1.16085 (Simulation time: 0 hr 4 min 21 sec) 
Heartbeat CPU 0 instructions: 180000000 cycles: 103028847 heartbeat IPC: 1.14481 cumulative IPC: 1.15882 (Simulation time: 0 hr 4 min 34 sec) 
Heartbeat CPU 0 instructions: 190000000 cycles: 111722543 heartbeat IPC: 1.15026 cumulative IPC: 1.15786 (Simulation time: 0 hr 4 min 47 sec) 
Heartbeat CPU 0 instructions: 200000003 cycles: 120180275 heartbeat IPC: 1.18235 cumulative IPC: 1.16027 (Simulation time: 0 hr 4 min 59 sec) 
Heartbeat CPU 0 instructions: 210000001 cycles: 128753206 heartbeat IPC: 1.16646 cumulative IPC: 1.16083 (Simulation time: 0 hr 5 min 11 sec) 
Heartbeat CPU 0 instructions: 220000000 cycles: 137403434 heartbeat IPC: 1.15604 cumulative IPC: 1.16043 (Simulation time: 0 hr 5 min 24 sec) 
Heartbeat CPU 0 instructions: 230000001 cycles: 145967600 heartbeat IPC: 1.16766 cumulative IPC: 1.16098 (Simulation time: 0 hr 5 min 37 sec) 
Heartbeat CPU 0 instructions: 240000000 cycles: 154565306 heartbeat IPC: 1.1631 cumulative IPC: 1.16113 (Simulation time: 0 hr 5 min 49 sec) 
Heartbeat CPU 0 instructions: 250000000 cycles: 163071599 heartbeat IPC: 1.1756 cumulative IPC: 1.16209 (Simulation time: 0 hr 6 min 2 sec) 
Heartbeat CPU 0 instructions: 260000001 cycles: 171622859 heartbeat IPC: 1.16942 cumulative IPC: 1.16254 (Simulation time: 0 hr 6 min 14 sec) 
Heartbeat CPU 0 instructions: 270000000 cycles: 180208110 heartbeat IPC: 1.16479 cumulative IPC: 1.16267 (Simulation time: 0 hr 6 min 26 sec) 
Heartbeat CPU 0 instructions: 280000003 cycles: 188670130 heartbeat IPC: 1.18175 cumulative IPC: 1.16372 (Simulation time: 0 hr 6 min 39 sec) 
Heartbeat CPU 0 instructions: 290000002 cycles: 197225071 heartbeat IPC: 1.16892 cumulative IPC: 1.16399 (Simulation time: 0 hr 6 min 51 sec) 
Heartbeat CPU 0 instructions: 300000002 cycles: 205797447 heartbeat IPC: 1.16654 cumulative IPC: 1.16412 (Simulation time: 0 hr 7 min 4 sec) 
Heartbeat CPU 0 instructions: 310000001 cycles: 214264627 heartbeat IPC: 1.18103 cumulative IPC: 1.16491 (Simulation time: 0 hr 7 min 16 sec) 
Heartbeat CPU 0 instructions: 320000002 cycles: 222866667 heartbeat IPC: 1.16252 cumulative IPC: 1.1648 (Simulation time: 0 hr 7 min 28 sec) 
Heartbeat CPU 0 instructions: 330000000 cycles: 231482670 heartbeat IPC: 1.16063 cumulative IPC: 1.16462 (Simulation time: 0 hr 7 min 41 sec) 
Heartbeat CPU 0 instructions: 340000000 cycles: 240122230 heartbeat IPC: 1.15747 cumulative IPC: 1.16432 (Simulation time: 0 hr 7 min 53 sec) 
Heartbeat CPU 0 instructions: 350000002 cycles: 248700208 heartbeat IPC: 1.16578 cumulative IPC: 1.16438 (Simulation time: 0 hr 8 min 6 sec) 
Heartbeat CPU 0 instructions: 360000000 cycles: 257371104 heartbeat IPC: 1.15328 cumulative IPC: 1.16395 (Simulation time: 0 hr 8 min 19 sec) 
Heartbeat CPU 0 instructions: 370000000 cycles: 265852314 heartbeat IPC: 1.17908 cumulative IPC: 1.1645 (Simulation time: 0 hr 8 min 31 sec) 
Heartbeat CPU 0 instructions: 380000000 cycles: 274562080 heartbeat IPC: 1.14814 cumulative IPC: 1.16391 (Simulation time: 0 hr 8 min 44 sec) 
Heartbeat CPU 0 instructions: 390000001 cycles: 283126140 heartbeat IPC: 1.16767 cumulative IPC: 1.16404 (Simulation time: 0 hr 8 min 56 sec) 
Heartbeat CPU 0 instructions: 400000001 cycles: 291880273 heartbeat IPC: 1.14232 cumulative IPC: 1.1633 (Simulation time: 0 hr 9 min 9 sec) 
Heartbeat CPU 0 instructions: 410000001 cycles: 300549413 heartbeat IPC: 1.15352 cumulative IPC: 1.16298 (Simulation time: 0 hr 9 min 21 sec) 
Heartbeat CPU 0 instructions: 420000000 cycles: 309173790 heartbeat IPC: 1.1595 cumulative IPC: 1.16287 (Simulation time: 0 hr 9 min 34 sec) 
Heartbeat CPU 0 instructions: 430000002 cycles: 317802884 heartbeat IPC: 1.15887 cumulative IPC: 1.16275 (Simulation time: 0 hr 9 min 46 sec) 
Heartbeat CPU 0 instructions: 440000000 cycles: 326524377 heartbeat IPC: 1.14659 cumulative IPC: 1.16227 (Simulation time: 0 hr 9 min 59 sec) 
Heartbeat CPU 0 instructions: 450000002 cycles: 335047208 heartbeat IPC: 1.17332 cumulative IPC: 1.16258 (Simulation time: 0 hr 10 min 11 sec) 
Heartbeat CPU 0 instructions: 460000000 cycles: 343548912 heartbeat IPC: 1.17623 cumulative IPC: 1.16296 (Simulation time: 0 hr 10 min 24 sec) 
Heartbeat CPU 0 instructions: 470000000 cycles: 351933215 heartbeat IPC: 1.19271 cumulative IPC: 1.16374 (Simulation time: 0 hr 10 min 36 sec) 
Heartbeat CPU 0 instructions: 480000001 cycles: 360379513 heartbeat IPC: 1.18395 cumulative IPC: 1.16426 (Simulation time: 0 hr 10 min 48 sec) 
Heartbeat CPU 0 instructions: 490000000 cycles: 368767371 heartbeat IPC: 1.1922 cumulative IPC: 1.16496 (Simulation time: 0 hr 11 min 1 sec) 
Heartbeat CPU 0 instructions: 500000001 cycles: 377154738 heartbeat IPC: 1.19227 cumulative IPC: 1.16563 (Simulation time: 0 hr 11 min 13 sec) 
Heartbeat CPU 0 instructions: 510000001 cycles: 385534548 heartbeat IPC: 1.19334 cumulative IPC: 1.16629 (Simulation time: 0 hr 11 min 25 sec) 
Heartbeat CPU 0 instructions: 520000001 cycles: 393923860 heartbeat IPC: 1.19199 cumulative IPC: 1.16689 (Simulation time: 0 hr 11 min 37 sec) 
Heartbeat CPU 0 instructions: 530000003 cycles: 402325617 heartbeat IPC: 1.19023 cumulative IPC: 1.16742 (Simulation time: 0 hr 11 min 55 sec) 
Heartbeat CPU 0 instructions: 540000000 cycles: 410666527 heartbeat IPC: 1.19891 cumulative IPC: 1.16812 (Simulation time: 0 hr 12 min 11 sec) 
Heartbeat CPU 0 instructions: 550000000 cycles: 419047112 heartbeat IPC: 1.19323 cumulative IPC: 1.16867 (Simulation time: 0 hr 12 min 23 sec) 
Heartbeat CPU 0 instructions: 560000002 cycles: 427432983 heartbeat IPC: 1.19248 cumulative IPC: 1.16918 (Simulation time: 0 hr 12 min 35 sec) 
Heartbeat CPU 0 instructions: 570000001 cycles: 435818479 heartbeat IPC: 1.19254 cumulative IPC: 1.16966 (Simulation time: 0 hr 12 min 48 sec) 
Heartbeat CPU 0 instructions: 580000000 cycles: 444184441 heartbeat IPC: 1.19532 cumulative IPC: 1.17019 (Simulation time: 0 hr 13 min 0 sec) 
Heartbeat CPU 0 instructions: 590000001 cycles: 452573017 heartbeat IPC: 1.1921 cumulative IPC: 1.17063 (Simulation time: 0 hr 13 min 12 sec) 
Heartbeat CPU 0 instructions: 600000001 cycles: 460960226 heartbeat IPC: 1.19229 cumulative IPC: 1.17105 (Simulation time: 0 hr 13 min 24 sec) 
Heartbeat CPU 0 instructions: 610000000 cycles: 469332635 heartbeat IPC: 1.1944 cumulative IPC: 1.1715 (Simulation time: 0 hr 13 min 37 sec) 
Heartbeat CPU 0 instructions: 620000003 cycles: 477727168 heartbeat IPC: 1.19125 cumulative IPC: 1.17187 (Simulation time: 0 hr 13 min 49 sec) 
Heartbeat CPU 0 instructions: 630000001 cycles: 486120673 heartbeat IPC: 1.1914 cumulative IPC: 1.17224 (Simulation time: 0 hr 14 min 1 sec) 
Heartbeat CPU 0 instructions: 640000003 cycles: 494521462 heartbeat IPC: 1.19036 cumulative IPC: 1.17257 (Simulation time: 0 hr 14 min 13 sec) 
Heartbeat CPU 0 instructions: 650000003 cycles: 502909870 heartbeat IPC: 1.19212 cumulative IPC: 1.17292 (Simulation time: 0 hr 14 min 25 sec) 
Heartbeat CPU 0 instructions: 660000000 cycles: 511422855 heartbeat IPC: 1.17468 cumulative IPC: 1.17295 (Simulation time: 0 hr 14 min 38 sec) 
Heartbeat CPU 0 instructions: 670000002 cycles: 520059818 heartbeat IPC: 1.15781 cumulative IPC: 1.17268 (Simulation time: 0 hr 14 min 50 sec) 
Heartbeat CPU 0 instructions: 680000003 cycles: 528763637 heartbeat IPC: 1.14892 cumulative IPC: 1.17226 (Simulation time: 0 hr 15 min 3 sec) 
Heartbeat CPU 0 instructions: 690000003 cycles: 537390441 heartbeat IPC: 1.15918 cumulative IPC: 1.17204 (Simulation time: 0 hr 15 min 15 sec) 
Heartbeat CPU 0 instructions: 700000000 cycles: 545931154 heartbeat IPC: 1.17086 cumulative IPC: 1.17202 (Simulation time: 0 hr 15 min 28 sec) 
Heartbeat CPU 0 instructions: 710000000 cycles: 554610550 heartbeat IPC: 1.15215 cumulative IPC: 1.17169 (Simulation time: 0 hr 15 min 40 sec) 
Heartbeat CPU 0 instructions: 720000003 cycles: 563427458 heartbeat IPC: 1.13418 cumulative IPC: 1.17106 (Simulation time: 0 hr 15 min 53 sec) 
Heartbeat CPU 0 instructions: 730000002 cycles: 572119172 heartbeat IPC: 1.15052 cumulative IPC: 1.17073 (Simulation time: 0 hr 16 min 6 sec) 
Heartbeat CPU 0 instructions: 740000001 cycles: 580702451 heartbeat IPC: 1.16506 cumulative IPC: 1.17064 (Simulation time: 0 hr 16 min 18 sec) 
Heartbeat CPU 0 instructions: 750000000 cycles: 589399334 heartbeat IPC: 1.14984 cumulative IPC: 1.17031 (Simulation time: 0 hr 16 min 31 sec) 
Heartbeat CPU 0 instructions: 760000000 cycles: 598006414 heartbeat IPC: 1.16183 cumulative IPC: 1.17019 (Simulation time: 0 hr 16 min 43 sec) 
Heartbeat CPU 0 instructions: 770000000 cycles: 606498784 heartbeat IPC: 1.17753 cumulative IPC: 1.17029 (Simulation time: 0 hr 16 min 56 sec) 
Heartbeat CPU 0 instructions: 780000002 cycles: 615082353 heartbeat IPC: 1.16502 cumulative IPC: 1.17022 (Simulation time: 0 hr 17 min 8 sec) 
Heartbeat CPU 0 instructions: 790000003 cycles: 623559398 heartbeat IPC: 1.17966 cumulative IPC: 1.17035 (Simulation time: 0 hr 17 min 21 sec) 
Heartbeat CPU 0 instructions: 800000002 cycles: 632131700 heartbeat IPC: 1.16655 cumulative IPC: 1.1703 (Simulation time: 0 hr 17 min 33 sec) 
Heartbeat CPU 0 instructions: 810000002 cycles: 640691147 heartbeat IPC: 1.1683 cumulative IPC: 1.17027 (Simulation time: 0 hr 17 min 46 sec) 
Heartbeat CPU 0 instructions: 820000000 cycles: 649240144 heartbeat IPC: 1.16973 cumulative IPC: 1.17026 (Simulation time: 0 hr 17 min 58 sec) 
Heartbeat CPU 0 instructions: 830000000 cycles: 657720938 heartbeat IPC: 1.17913 cumulative IPC: 1.17038 (Simulation time: 0 hr 18 min 11 sec) 
Heartbeat CPU 0 instructions: 840000003 cycles: 666297402 heartbeat IPC: 1.16598 cumulative IPC: 1.17032 (Simulation time: 0 hr 18 min 23 sec) 
Heartbeat CPU 0 instructions: 850000001 cycles: 674762735 heartbeat IPC: 1.18129 cumulative IPC: 1.17047 (Simulation time: 0 hr 18 min 36 sec) 
Heartbeat CPU 0 instructions: 860000003 cycles: 683343706 heartbeat IPC: 1.16537 cumulative IPC: 1.1704 (Simulation time: 0 hr 18 min 48 sec) 
Heartbeat CPU 0 instructions: 870000000 cycles: 691818997 heartbeat IPC: 1.1799 cumulative IPC: 1.17052 (Simulation time: 0 hr 19 min 1 sec) 
Heartbeat CPU 0 instructions: 880000000 cycles: 700432985 heartbeat IPC: 1.1609 cumulative IPC: 1.1704 (Simulation time: 0 hr 19 min 13 sec) 
Heartbeat CPU 0 instructions: 890000003 cycles: 708912449 heartbeat IPC: 1.17932 cumulative IPC: 1.17051 (Simulation time: 0 hr 19 min 26 sec) 
Heartbeat CPU 0 instructions: 900000000 cycles: 717493257 heartbeat IPC: 1.16539 cumulative IPC: 1.17045 (Simulation time: 0 hr 19 min 38 sec) 
Heartbeat CPU 0 instructions: 910000003 cycles: 726125974 heartbeat IPC: 1.15838 cumulative IPC: 1.1703 (Simulation time: 0 hr 19 min 51 sec) 
Heartbeat CPU 0 instructions: 920000001 cycles: 734624632 heartbeat IPC: 1.17666 cumulative IPC: 1.17037 (Simulation time: 0 hr 20 min 4 sec) 
Heartbeat CPU 0 instructions: 930000002 cycles: 743110357 heartbeat IPC: 1.17845 cumulative IPC: 1.17047 (Simulation time: 0 hr 20 min 16 sec) 
Heartbeat CPU 0 instructions: 940000000 cycles: 751735567 heartbeat IPC: 1.15939 cumulative IPC: 1.17034 (Simulation time: 0 hr 20 min 29 sec) 
Heartbeat CPU 0 instructions: 950000001 cycles: 760469118 heartbeat IPC: 1.14501 cumulative IPC: 1.17003 (Simulation time: 0 hr 20 min 41 sec) 
Heartbeat CPU 0 instructions: 960000000 cycles: 769067559 heartbeat IPC: 1.163 cumulative IPC: 1.16995 (Simulation time: 0 hr 20 min 54 sec) 
Heartbeat CPU 0 instructions: 970000002 cycles: 777695352 heartbeat IPC: 1.15905 cumulative IPC: 1.16982 (Simulation time: 0 hr 21 min 6 sec) 
Heartbeat CPU 0 instructions: 980000000 cycles: 786591447 heartbeat IPC: 1.12409 cumulative IPC: 1.16928 (Simulation time: 0 hr 21 min 19 sec) 
Heartbeat CPU 0 instructions: 990000000 cycles: 795173134 heartbeat IPC: 1.16527 cumulative IPC: 1.16924 (Simulation time: 0 hr 21 min 32 sec) 
Heartbeat CPU 0 instructions: 1000000003 cycles: 803876654 heartbeat IPC: 1.14896 cumulative IPC: 1.16901 (Simulation time: 0 hr 21 min 44 sec) 
Heartbeat CPU 0 instructions: 1010000000 cycles: 812502636 heartbeat IPC: 1.15929 cumulative IPC: 1.1689 (Simulation time: 0 hr 21 min 57 sec) 
Heartbeat CPU 0 instructions: 1020000000 cycles: 820987764 heartbeat IPC: 1.17853 cumulative IPC: 1.169 (Simulation time: 0 hr 22 min 9 sec) 
Heartbeat CPU 0 instructions: 1030000000 cycles: 829519866 heartbeat IPC: 1.17204 cumulative IPC: 1.16904 (Simulation time: 0 hr 22 min 22 sec) 
Heartbeat CPU 0 instructions: 1040000001 cycles: 837966766 heartbeat IPC: 1.18387 cumulative IPC: 1.16919 (Simulation time: 0 hr 22 min 34 sec) 
Heartbeat CPU 0 instructions: 1050000001 cycles: 846353006 heartbeat IPC: 1.19243 cumulative IPC: 1.16943 (Simulation time: 0 hr 22 min 46 sec) 
Heartbeat CPU 0 instructions: 1060000000 cycles: 854770171 heartbeat IPC: 1.18805 cumulative IPC: 1.16962 (Simulation time: 0 hr 22 min 59 sec) 
Heartbeat CPU 0 instructions: 1070000000 cycles: 863157604 heartbeat IPC: 1.19226 cumulative IPC: 1.16985 (Simulation time: 0 hr 23 min 11 sec) 
Heartbeat CPU 0 instructions: 1080000003 cycles: 871525841 heartbeat IPC: 1.195 cumulative IPC: 1.1701 (Simulation time: 0 hr 23 min 23 sec) 
Heartbeat CPU 0 instructions: 1090000003 cycles: 879908556 heartbeat IPC: 1.19293 cumulative IPC: 1.17033 (Simulation time: 0 hr 23 min 35 sec) 
Heartbeat CPU 0 instructions: 1100000000 cycles: 888305378 heartbeat IPC: 1.19093 cumulative IPC: 1.17053 (Simulation time: 0 hr 23 min 48 sec) 
Finished CPU 0 instructions: 1000000000 cycles: 854312119 cumulative IPC: 1.17053 (Simulation time: 0 hr 23 min 48 sec) 

ChampSim completed all CPUs

Region of Interest Statistics

CPU 0 cumulative IPC: 1.17053 instructions: 1000000000 cycles: 854312119
L1D TOTAL     ACCESS:  198166367  HIT:  198010394  MISS:     155973
L1D LOAD      ACCESS:  160341602  HIT:  160314236  MISS:      27366
L1D RFO       ACCESS:   37824765  HIT:   37696158  MISS:     128607
L1D PREFETCH  ACCESS:          0  HIT:          0  MISS:          0
L1D WRITEBACK ACCESS:          0  HIT:          0  MISS:          0
L1D PREFETCH  REQUESTED:          0  ISSUED:          0  USEFUL:          0  USELESS:          0
L1D AVERAGE MISS LATENCY: 202.588 cycles
L1I TOTAL     ACCESS:  211079661  HIT:  211079661  MISS:          0
L1I LOAD      ACCESS:  211079661  HIT:  211079661  MISS:          0
L1I RFO       ACCESS:          0  HIT:          0  MISS:          0
L1I PREFETCH  ACCESS:          0  HIT:          0  MISS:          0
L1I WRITEBACK ACCESS:          0  HIT:          0  MISS:          0
L1I PREFETCH  REQUESTED:          0  ISSUED:          0  USEFUL:          0  USELESS:          0
L1I AVERAGE MISS LATENCY: -nan cycles
L2C TOTAL     ACCESS:     284774  HIT:     130566  MISS:     154208
L2C LOAD      ACCESS:      27366  HIT:       1641  MISS:      25725
L2C RFO       ACCESS:     128607  HIT:        285  MISS:     128322
L2C PREFETCH  ACCESS:          0  HIT:          0  MISS:          0
L2C WRITEBACK ACCESS:     128801  HIT:     128640  MISS:        161
L2C PREFETCH  REQUESTED:          0  ISSUED:          0  USEFUL:          0  USELESS:          0
L2C AVERAGE MISS LATENCY: 189.313 cycles
LLC TOTAL     ACCESS:     282466  HIT:      13865  MISS:     268601
LLC LOAD      ACCESS:      25725  HIT:          0  MISS:      25725
LLC RFO       ACCESS:     128322  HIT:          0  MISS:     128322
LLC PREFETCH  ACCESS:          0  HIT:          0  MISS:          0
LLC WRITEBACK ACCESS:     128419  HIT:      13865  MISS:     114554
LLC PREFETCH  REQUESTED:          0  ISSUED:          0  USEFUL:          0  USELESS:          0
LLC AVERAGE MISS LATENCY: 91.2956 cycles
Major fault: 0 Minor fault: 3176
==============================
Perceptron RRIP Stats:
   Num Updates: 177875
   Num Trains:  56
==============================
perceptron #0: 1 -1 1 1 1 -1 1 -1 -1 1 -7 

perceptron #1: 1 -1 1 1 1 -1 1 -1 -1 1 -7 

perceptron #2: 1 -1 1 1 1 -1 1 -1 -1 1 -7 

perceptron #3: 1 -1 1 1 1 -1 1 -1 -1 1 -7 

perceptron #4: 1 -1 1 1 1 -1 1 -1 -1 1 -7 

perceptron #5: 1 -1 1 1 1 -1 1 -1 -1 1 -7 

perceptron #6: 1 -1 1 1 1 -1 1 -1 -1 1 -7 

perceptron #7: 1 -1 1 1 1 -1 1 -1 -1 1 -7 


DRAM Statistics
 CHANNEL 0
 RQ ROW_BUFFER_HIT:      28974  ROW_BUFFER_MISS:     125073
 DBUS_CONGESTED:      88795
 WQ ROW_BUFFER_HIT:      23099  ROW_BUFFER_MISS:      97452  FULL:          0

 AVG_CONGESTED_CYCLE: 6

CPU 0 Branch Prediction Accuracy: 86.8535% MPKI: 19.1572 Average ROB Occupancy at Mispredict: 19.6179

Branch types
NOT_BRANCH: 854278635 85.4279%
BRANCH_DIRECT_JUMP: 10863909 1.08639%
BRANCH_INDIRECT: 1041230 0.104123%
BRANCH_CONDITIONAL: 130770005 13.077%
BRANCH_DIRECT_CALL: 1522966 0.152297%
BRANCH_INDIRECT_CALL: 0 0%
BRANCH_RETURN: 1522965 0.152297%
BRANCH_OTHER: 0 0%

