
*** ChampSim Multicore Out-of-Order Simulator ***

Warmup Instructions: 100000000
Simulation Instructions: 1000000000
Number of CPUs: 1
LLC sets: 2048
LLC ways: 16
Off-chip DRAM Size: 4096 MB Channels: 1 Width: 64-bit Data Rate: 3200 MT/s

CPU 0 runs /scratch/user/kevin.weston/dpc3-traces/605.champsimtrace.xz
CPU 0 Bimodal branch predictor
Initialize RRPV
Initialize PRRIP state
Heartbeat CPU 0 instructions: 10000000 cycles: 4110845 heartbeat IPC: 2.43259 cumulative IPC: 2.43259 (Simulation time: 0 hr 0 min 25 sec) 
Heartbeat CPU 0 instructions: 20000000 cycles: 8227640 heartbeat IPC: 2.42907 cumulative IPC: 2.43083 (Simulation time: 0 hr 0 min 49 sec) 
Heartbeat CPU 0 instructions: 30000002 cycles: 12330795 heartbeat IPC: 2.43715 cumulative IPC: 2.43293 (Simulation time: 0 hr 1 min 14 sec) 
Heartbeat CPU 0 instructions: 40000000 cycles: 16438373 heartbeat IPC: 2.43452 cumulative IPC: 2.43333 (Simulation time: 0 hr 1 min 38 sec) 
Heartbeat CPU 0 instructions: 50000000 cycles: 20542721 heartbeat IPC: 2.43644 cumulative IPC: 2.43395 (Simulation time: 0 hr 2 min 3 sec) 
Heartbeat CPU 0 instructions: 60000003 cycles: 24647859 heartbeat IPC: 2.43597 cumulative IPC: 2.43429 (Simulation time: 0 hr 2 min 27 sec) 
Heartbeat CPU 0 instructions: 70000003 cycles: 28757140 heartbeat IPC: 2.43352 cumulative IPC: 2.43418 (Simulation time: 0 hr 2 min 52 sec) 
Heartbeat CPU 0 instructions: 80000000 cycles: 32866470 heartbeat IPC: 2.43349 cumulative IPC: 2.43409 (Simulation time: 0 hr 3 min 16 sec) 
Heartbeat CPU 0 instructions: 90000000 cycles: 36982121 heartbeat IPC: 2.42975 cumulative IPC: 2.43361 (Simulation time: 0 hr 3 min 41 sec) 
Heartbeat CPU 0 instructions: 100000000 cycles: 41070579 heartbeat IPC: 2.44591 cumulative IPC: 2.43483 (Simulation time: 0 hr 4 min 5 sec) 

Warmup complete CPU 0 instructions: 100000002 cycles: 41070580 (Simulation time: 0 hr 4 min 5 sec) 

Heartbeat CPU 0 instructions: 110000000 cycles: 68811368 heartbeat IPC: 0.36048 cumulative IPC: 0.36048 (Simulation time: 0 hr 4 min 26 sec) 
Heartbeat CPU 0 instructions: 120000000 cycles: 96458077 heartbeat IPC: 0.361707 cumulative IPC: 0.361092 (Simulation time: 0 hr 4 min 47 sec) 
Heartbeat CPU 0 instructions: 130000000 cycles: 124131000 heartbeat IPC: 0.361364 cumulative IPC: 0.361183 (Simulation time: 0 hr 5 min 8 sec) 
Heartbeat CPU 0 instructions: 140000002 cycles: 152601234 heartbeat IPC: 0.351244 cumulative IPC: 0.358646 (Simulation time: 0 hr 5 min 29 sec) 
Heartbeat CPU 0 instructions: 150000000 cycles: 180605350 heartbeat IPC: 0.35709 cumulative IPC: 0.358334 (Simulation time: 0 hr 5 min 50 sec) 
Heartbeat CPU 0 instructions: 160000000 cycles: 208500928 heartbeat IPC: 0.35848 cumulative IPC: 0.358358 (Simulation time: 0 hr 6 min 11 sec) 
Heartbeat CPU 0 instructions: 170000000 cycles: 237082928 heartbeat IPC: 0.349871 cumulative IPC: 0.35712 (Simulation time: 0 hr 6 min 32 sec) 
Heartbeat CPU 0 instructions: 180000001 cycles: 265019377 heartbeat IPC: 0.357955 cumulative IPC: 0.357224 (Simulation time: 0 hr 6 min 52 sec) 
Heartbeat CPU 0 instructions: 190000002 cycles: 293172049 heartbeat IPC: 0.355206 cumulative IPC: 0.356999 (Simulation time: 0 hr 7 min 13 sec) 
Heartbeat CPU 0 instructions: 200000000 cycles: 321358865 heartbeat IPC: 0.354776 cumulative IPC: 0.356776 (Simulation time: 0 hr 7 min 34 sec) 
Heartbeat CPU 0 instructions: 210000003 cycles: 349480941 heartbeat IPC: 0.355593 cumulative IPC: 0.356668 (Simulation time: 0 hr 7 min 55 sec) 
Heartbeat CPU 0 instructions: 220000000 cycles: 377055188 heartbeat IPC: 0.362657 cumulative IPC: 0.357159 (Simulation time: 0 hr 8 min 16 sec) 
Heartbeat CPU 0 instructions: 230000000 cycles: 405934357 heartbeat IPC: 0.34627 cumulative IPC: 0.356297 (Simulation time: 0 hr 8 min 38 sec) 
Heartbeat CPU 0 instructions: 240000000 cycles: 433458093 heartbeat IPC: 0.363323 cumulative IPC: 0.35679 (Simulation time: 0 hr 8 min 58 sec) 
Heartbeat CPU 0 instructions: 250000001 cycles: 461558768 heartbeat IPC: 0.355863 cumulative IPC: 0.356728 (Simulation time: 0 hr 9 min 19 sec) 
Heartbeat CPU 0 instructions: 260000002 cycles: 489700550 heartbeat IPC: 0.355344 cumulative IPC: 0.356641 (Simulation time: 0 hr 9 min 41 sec) 
Heartbeat CPU 0 instructions: 270000000 cycles: 517837750 heartbeat IPC: 0.355401 cumulative IPC: 0.356568 (Simulation time: 0 hr 10 min 2 sec) 
Heartbeat CPU 0 instructions: 280000001 cycles: 546129615 heartbeat IPC: 0.353459 cumulative IPC: 0.356394 (Simulation time: 0 hr 10 min 23 sec) 
Heartbeat CPU 0 instructions: 290000001 cycles: 573835845 heartbeat IPC: 0.36093 cumulative IPC: 0.35663 (Simulation time: 0 hr 10 min 44 sec) 
Heartbeat CPU 0 instructions: 300000000 cycles: 601691216 heartbeat IPC: 0.358997 cumulative IPC: 0.356747 (Simulation time: 0 hr 11 min 5 sec) 
Heartbeat CPU 0 instructions: 310000000 cycles: 628226022 heartbeat IPC: 0.376864 cumulative IPC: 0.357657 (Simulation time: 0 hr 11 min 26 sec) 
Heartbeat CPU 0 instructions: 320000001 cycles: 655702958 heartbeat IPC: 0.363942 cumulative IPC: 0.357938 (Simulation time: 0 hr 11 min 47 sec) 
Heartbeat CPU 0 instructions: 330000000 cycles: 683040930 heartbeat IPC: 0.365792 cumulative IPC: 0.358272 (Simulation time: 0 hr 12 min 8 sec) 
Heartbeat CPU 0 instructions: 340000003 cycles: 710384848 heartbeat IPC: 0.365712 cumulative IPC: 0.358576 (Simulation time: 0 hr 12 min 29 sec) 
Heartbeat CPU 0 instructions: 350000003 cycles: 737714882 heartbeat IPC: 0.365898 cumulative IPC: 0.358863 (Simulation time: 0 hr 12 min 50 sec) 
Heartbeat CPU 0 instructions: 360000003 cycles: 764700428 heartbeat IPC: 0.370569 cumulative IPC: 0.3593 (Simulation time: 0 hr 13 min 11 sec) 
Heartbeat CPU 0 instructions: 370000002 cycles: 791653856 heartbeat IPC: 0.37101 cumulative IPC: 0.35972 (Simulation time: 0 hr 13 min 32 sec) 
Heartbeat CPU 0 instructions: 380000001 cycles: 818994432 heartbeat IPC: 0.365757 cumulative IPC: 0.359932 (Simulation time: 0 hr 13 min 53 sec) 
Heartbeat CPU 0 instructions: 390000000 cycles: 846184788 heartbeat IPC: 0.367777 cumulative IPC: 0.360197 (Simulation time: 0 hr 14 min 14 sec) 
Heartbeat CPU 0 instructions: 400000001 cycles: 873334427 heartbeat IPC: 0.368329 cumulative IPC: 0.360463 (Simulation time: 0 hr 14 min 35 sec) 
Heartbeat CPU 0 instructions: 410000000 cycles: 900720242 heartbeat IPC: 0.365153 cumulative IPC: 0.360612 (Simulation time: 0 hr 14 min 56 sec) 
Heartbeat CPU 0 instructions: 420000003 cycles: 928101875 heartbeat IPC: 0.365208 cumulative IPC: 0.360754 (Simulation time: 0 hr 15 min 17 sec) 
Heartbeat CPU 0 instructions: 430000000 cycles: 955586364 heartbeat IPC: 0.363841 cumulative IPC: 0.360847 (Simulation time: 0 hr 15 min 38 sec) 
Heartbeat CPU 0 instructions: 440000000 cycles: 982937899 heartbeat IPC: 0.36561 cumulative IPC: 0.360985 (Simulation time: 0 hr 15 min 59 sec) 
Heartbeat CPU 0 instructions: 450000000 cycles: 1010699209 heartbeat IPC: 0.360214 cumulative IPC: 0.360963 (Simulation time: 0 hr 16 min 20 sec) 
Heartbeat CPU 0 instructions: 460000001 cycles: 1038512420 heartbeat IPC: 0.359541 cumulative IPC: 0.360923 (Simulation time: 0 hr 16 min 41 sec) 
Heartbeat CPU 0 instructions: 470000003 cycles: 1066874640 heartbeat IPC: 0.352582 cumulative IPC: 0.360693 (Simulation time: 0 hr 17 min 3 sec) 
Heartbeat CPU 0 instructions: 480000000 cycles: 1094880417 heartbeat IPC: 0.357069 cumulative IPC: 0.360596 (Simulation time: 0 hr 17 min 24 sec) 
Heartbeat CPU 0 instructions: 490000003 cycles: 1122877507 heartbeat IPC: 0.35718 cumulative IPC: 0.360508 (Simulation time: 0 hr 17 min 45 sec) 
Heartbeat CPU 0 instructions: 500000000 cycles: 1151422211 heartbeat IPC: 0.350328 cumulative IPC: 0.360246 (Simulation time: 0 hr 18 min 6 sec) 
Heartbeat CPU 0 instructions: 510000001 cycles: 1179089564 heartbeat IPC: 0.361437 cumulative IPC: 0.360275 (Simulation time: 0 hr 18 min 27 sec) 
Heartbeat CPU 0 instructions: 520000000 cycles: 1206945226 heartbeat IPC: 0.358993 cumulative IPC: 0.360245 (Simulation time: 0 hr 18 min 48 sec) 
Heartbeat CPU 0 instructions: 530000003 cycles: 1235500258 heartbeat IPC: 0.350201 cumulative IPC: 0.360004 (Simulation time: 0 hr 19 min 10 sec) 
Heartbeat CPU 0 instructions: 540000003 cycles: 1263389712 heartbeat IPC: 0.358558 cumulative IPC: 0.359971 (Simulation time: 0 hr 19 min 31 sec) 
Heartbeat CPU 0 instructions: 550000000 cycles: 1291896320 heartbeat IPC: 0.350796 cumulative IPC: 0.359762 (Simulation time: 0 hr 19 min 52 sec) 
Heartbeat CPU 0 instructions: 560000000 cycles: 1320604932 heartbeat IPC: 0.348328 cumulative IPC: 0.359506 (Simulation time: 0 hr 20 min 13 sec) 
Heartbeat CPU 0 instructions: 570000000 cycles: 1356582015 heartbeat IPC: 0.277955 cumulative IPC: 0.357275 (Simulation time: 0 hr 20 min 36 sec) 
Heartbeat CPU 0 instructions: 580000001 cycles: 1385225449 heartbeat IPC: 0.34912 cumulative IPC: 0.357102 (Simulation time: 0 hr 20 min 57 sec) 
Heartbeat CPU 0 instructions: 590000000 cycles: 1413938046 heartbeat IPC: 0.348279 cumulative IPC: 0.356917 (Simulation time: 0 hr 21 min 18 sec) 
Heartbeat CPU 0 instructions: 600000000 cycles: 1442541509 heartbeat IPC: 0.349608 cumulative IPC: 0.356768 (Simulation time: 0 hr 21 min 40 sec) 
Heartbeat CPU 0 instructions: 610000001 cycles: 1471024256 heartbeat IPC: 0.35109 cumulative IPC: 0.356655 (Simulation time: 0 hr 22 min 1 sec) 
Heartbeat CPU 0 instructions: 620000001 cycles: 1499039057 heartbeat IPC: 0.356954 cumulative IPC: 0.356661 (Simulation time: 0 hr 22 min 22 sec) 
Heartbeat CPU 0 instructions: 630000001 cycles: 1527713556 heartbeat IPC: 0.348742 cumulative IPC: 0.356508 (Simulation time: 0 hr 22 min 44 sec) 
Heartbeat CPU 0 instructions: 640000002 cycles: 1556397103 heartbeat IPC: 0.348632 cumulative IPC: 0.356359 (Simulation time: 0 hr 23 min 5 sec) 
Heartbeat CPU 0 instructions: 650000000 cycles: 1584706831 heartbeat IPC: 0.353235 cumulative IPC: 0.356302 (Simulation time: 0 hr 23 min 26 sec) 
Heartbeat CPU 0 instructions: 660000000 cycles: 1613193351 heartbeat IPC: 0.351043 cumulative IPC: 0.356206 (Simulation time: 0 hr 23 min 48 sec) 
Heartbeat CPU 0 instructions: 670000002 cycles: 1641824505 heartbeat IPC: 0.34927 cumulative IPC: 0.356082 (Simulation time: 0 hr 24 min 9 sec) 
Heartbeat CPU 0 instructions: 680000000 cycles: 1670484927 heartbeat IPC: 0.348913 cumulative IPC: 0.355956 (Simulation time: 0 hr 24 min 31 sec) 
Heartbeat CPU 0 instructions: 690000002 cycles: 1698763963 heartbeat IPC: 0.353619 cumulative IPC: 0.355916 (Simulation time: 0 hr 24 min 52 sec) 
Heartbeat CPU 0 instructions: 700000000 cycles: 1727610260 heartbeat IPC: 0.346665 cumulative IPC: 0.355758 (Simulation time: 0 hr 25 min 14 sec) 
Heartbeat CPU 0 instructions: 710000000 cycles: 1756315946 heartbeat IPC: 0.348363 cumulative IPC: 0.355634 (Simulation time: 0 hr 25 min 35 sec) 
Heartbeat CPU 0 instructions: 720000000 cycles: 1785174537 heartbeat IPC: 0.346517 cumulative IPC: 0.355483 (Simulation time: 0 hr 25 min 57 sec) 
Heartbeat CPU 0 instructions: 730000000 cycles: 1814081696 heartbeat IPC: 0.345935 cumulative IPC: 0.355328 (Simulation time: 0 hr 26 min 18 sec) 
Heartbeat CPU 0 instructions: 740000002 cycles: 1842665099 heartbeat IPC: 0.349853 cumulative IPC: 0.355241 (Simulation time: 0 hr 26 min 40 sec) 
Heartbeat CPU 0 instructions: 750000001 cycles: 1871172522 heartbeat IPC: 0.350786 cumulative IPC: 0.355171 (Simulation time: 0 hr 27 min 1 sec) 
Heartbeat CPU 0 instructions: 760000002 cycles: 1900331465 heartbeat IPC: 0.342948 cumulative IPC: 0.35498 (Simulation time: 0 hr 27 min 23 sec) 
Heartbeat CPU 0 instructions: 770000000 cycles: 1929553370 heartbeat IPC: 0.342209 cumulative IPC: 0.354782 (Simulation time: 0 hr 27 min 44 sec) 
Heartbeat CPU 0 instructions: 780000003 cycles: 1958684336 heartbeat IPC: 0.343277 cumulative IPC: 0.354607 (Simulation time: 0 hr 28 min 6 sec) 
Heartbeat CPU 0 instructions: 790000001 cycles: 1987545348 heartbeat IPC: 0.346488 cumulative IPC: 0.354487 (Simulation time: 0 hr 28 min 27 sec) 
Heartbeat CPU 0 instructions: 800000000 cycles: 2017635806 heartbeat IPC: 0.332331 cumulative IPC: 0.35415 (Simulation time: 0 hr 28 min 49 sec) 
Heartbeat CPU 0 instructions: 810000003 cycles: 2047029196 heartbeat IPC: 0.340213 cumulative IPC: 0.353945 (Simulation time: 0 hr 29 min 11 sec) 
Heartbeat CPU 0 instructions: 820000002 cycles: 2076307540 heartbeat IPC: 0.341549 cumulative IPC: 0.353767 (Simulation time: 0 hr 29 min 33 sec) 
Heartbeat CPU 0 instructions: 830000000 cycles: 2105752029 heartbeat IPC: 0.339622 cumulative IPC: 0.353565 (Simulation time: 0 hr 29 min 56 sec) 
Heartbeat CPU 0 instructions: 840000001 cycles: 2134889409 heartbeat IPC: 0.343202 cumulative IPC: 0.353421 (Simulation time: 0 hr 30 min 18 sec) 
Heartbeat CPU 0 instructions: 850000001 cycles: 2165487509 heartbeat IPC: 0.326818 cumulative IPC: 0.353038 (Simulation time: 0 hr 30 min 40 sec) 
Heartbeat CPU 0 instructions: 860000002 cycles: 2195019694 heartbeat IPC: 0.338614 cumulative IPC: 0.35284 (Simulation time: 0 hr 31 min 3 sec) 
Heartbeat CPU 0 instructions: 870000001 cycles: 2224573592 heartbeat IPC: 0.338365 cumulative IPC: 0.352644 (Simulation time: 0 hr 31 min 26 sec) 
Heartbeat CPU 0 instructions: 880000000 cycles: 2254097314 heartbeat IPC: 0.338711 cumulative IPC: 0.352458 (Simulation time: 0 hr 31 min 48 sec) 
Heartbeat CPU 0 instructions: 890000000 cycles: 2283934598 heartbeat IPC: 0.335151 cumulative IPC: 0.352228 (Simulation time: 0 hr 32 min 11 sec) 
Heartbeat CPU 0 instructions: 900000000 cycles: 2313519661 heartbeat IPC: 0.338008 cumulative IPC: 0.352043 (Simulation time: 0 hr 32 min 34 sec) 
Heartbeat CPU 0 instructions: 910000003 cycles: 2342633731 heartbeat IPC: 0.343477 cumulative IPC: 0.351935 (Simulation time: 0 hr 32 min 57 sec) 
Heartbeat CPU 0 instructions: 920000001 cycles: 2372609224 heartbeat IPC: 0.333606 cumulative IPC: 0.351699 (Simulation time: 0 hr 33 min 20 sec) 
Heartbeat CPU 0 instructions: 930000003 cycles: 2402345342 heartbeat IPC: 0.336291 cumulative IPC: 0.351505 (Simulation time: 0 hr 33 min 43 sec) 
Heartbeat CPU 0 instructions: 940000000 cycles: 2431983886 heartbeat IPC: 0.337398 cumulative IPC: 0.35133 (Simulation time: 0 hr 34 min 5 sec) 
Heartbeat CPU 0 instructions: 950000001 cycles: 2461761858 heartbeat IPC: 0.335819 cumulative IPC: 0.351139 (Simulation time: 0 hr 34 min 28 sec) 
Heartbeat CPU 0 instructions: 960000001 cycles: 2491360760 heartbeat IPC: 0.33785 cumulative IPC: 0.350979 (Simulation time: 0 hr 34 min 51 sec) 
Heartbeat CPU 0 instructions: 970000002 cycles: 2521285578 heartbeat IPC: 0.334171 cumulative IPC: 0.350776 (Simulation time: 0 hr 35 min 14 sec) 
Heartbeat CPU 0 instructions: 980000003 cycles: 2550964771 heartbeat IPC: 0.336936 cumulative IPC: 0.350612 (Simulation time: 0 hr 35 min 37 sec) 
Heartbeat CPU 0 instructions: 990000000 cycles: 2580375362 heartbeat IPC: 0.340013 cumulative IPC: 0.35049 (Simulation time: 0 hr 35 min 59 sec) 
Heartbeat CPU 0 instructions: 1000000002 cycles: 2609700466 heartbeat IPC: 0.341005 cumulative IPC: 0.350381 (Simulation time: 0 hr 36 min 22 sec) 
Heartbeat CPU 0 instructions: 1010000002 cycles: 2639139279 heartbeat IPC: 0.339688 cumulative IPC: 0.35026 (Simulation time: 0 hr 36 min 44 sec) 
Heartbeat CPU 0 instructions: 1020000002 cycles: 2669087881 heartbeat IPC: 0.333905 cumulative IPC: 0.350074 (Simulation time: 0 hr 37 min 7 sec) 
Heartbeat CPU 0 instructions: 1030000003 cycles: 2698555447 heartbeat IPC: 0.339356 cumulative IPC: 0.349955 (Simulation time: 0 hr 37 min 29 sec) 
Heartbeat CPU 0 instructions: 1040000001 cycles: 2728020586 heartbeat IPC: 0.339384 cumulative IPC: 0.349839 (Simulation time: 0 hr 37 min 51 sec) 
Heartbeat CPU 0 instructions: 1050000000 cycles: 2757298786 heartbeat IPC: 0.341551 cumulative IPC: 0.34975 (Simulation time: 0 hr 38 min 13 sec) 
Heartbeat CPU 0 instructions: 1060000000 cycles: 2786622764 heartbeat IPC: 0.341018 cumulative IPC: 0.349656 (Simulation time: 0 hr 38 min 35 sec) 
Heartbeat CPU 0 instructions: 1070000003 cycles: 2815870398 heartbeat IPC: 0.341908 cumulative IPC: 0.349575 (Simulation time: 0 hr 38 min 57 sec) 
Heartbeat CPU 0 instructions: 1080000000 cycles: 2845100296 heartbeat IPC: 0.342115 cumulative IPC: 0.349497 (Simulation time: 0 hr 39 min 19 sec) 
Heartbeat CPU 0 instructions: 1090000002 cycles: 2874684495 heartbeat IPC: 0.338018 cumulative IPC: 0.349377 (Simulation time: 0 hr 39 min 42 sec) 
Heartbeat CPU 0 instructions: 1100000000 cycles: 2903716233 heartbeat IPC: 0.344451 cumulative IPC: 0.349327 (Simulation time: 0 hr 40 min 4 sec) 
Finished CPU 0 instructions: 1000000000 cycles: 2862645654 cumulative IPC: 0.349327 (Simulation time: 0 hr 40 min 4 sec) 

ChampSim completed all CPUs

Region of Interest Statistics

CPU 0 cumulative IPC: 0.349327 instructions: 1000000000 cycles: 2862645654
L1D TOTAL     ACCESS:  369920781  HIT:  329915034  MISS:   40005747
L1D LOAD      ACCESS:  260990315  HIT:  224702630  MISS:   36287685
L1D RFO       ACCESS:  108930466  HIT:  105212404  MISS:    3718062
L1D PREFETCH  ACCESS:          0  HIT:          0  MISS:          0
L1D WRITEBACK ACCESS:          0  HIT:          0  MISS:          0
L1D PREFETCH  REQUESTED:          0  ISSUED:          0  USEFUL:          0  USELESS:          0
L1D AVERAGE MISS LATENCY: 76.57 cycles
L1I TOTAL     ACCESS:  194987485  HIT:  194987483  MISS:          2
L1I LOAD      ACCESS:  194987485  HIT:  194987483  MISS:          2
L1I RFO       ACCESS:          0  HIT:          0  MISS:          0
L1I PREFETCH  ACCESS:          0  HIT:          0  MISS:          0
L1I WRITEBACK ACCESS:          0  HIT:          0  MISS:          0
L1I PREFETCH  REQUESTED:          0  ISSUED:          0  USEFUL:          0  USELESS:          0
L1I AVERAGE MISS LATENCY: 215 cycles
L2C TOTAL     ACCESS:   45580708  HIT:   14674964  MISS:   30905744
L2C LOAD      ACCESS:   36287538  HIT:    8272808  MISS:   28014730
L2C RFO       ACCESS:    3718006  HIT:     835671  MISS:    2882335
L2C PREFETCH  ACCESS:          0  HIT:          0  MISS:          0
L2C WRITEBACK ACCESS:    5575164  HIT:    5566485  MISS:       8679
L2C PREFETCH  REQUESTED:          0  ISSUED:          0  USEFUL:          0  USELESS:          0
L2C AVERAGE MISS LATENCY: 79.2404 cycles
LLC TOTAL     ACCESS:   35157963  HIT:   22603566  MISS:   12554397
LLC LOAD      ACCESS:   28014698  HIT:   15514068  MISS:   12500630
LLC RFO       ACCESS:    2882306  HIT:    2876264  MISS:       6042
LLC PREFETCH  ACCESS:          0  HIT:          0  MISS:          0
LLC WRITEBACK ACCESS:    4260959  HIT:    4213234  MISS:      47725
LLC PREFETCH  REQUESTED:          0  ISSUED:          0  USEFUL:          0  USELESS:          0
LLC AVERAGE MISS LATENCY: 119.825 cycles
Major fault: 0 Minor fault: 151086
==============================
Perceptron RRIP Stats:
   Num Updates: 38559748
   Num Trains:  893616
==============================
perceptron #0: -4 2 0 0 2 -2 0 0 0 2 0 2 2 -2 -4 -18 


DRAM Statistics
 CHANNEL 0
 RQ ROW_BUFFER_HIT:    6808627  ROW_BUFFER_MISS:    5698037
 DBUS_CONGESTED:    1882524
 WQ ROW_BUFFER_HIT:      35697  ROW_BUFFER_MISS:      49123  FULL:          0

 AVG_CONGESTED_CYCLE: 5

CPU 0 Branch Prediction Accuracy: 88.8495% MPKI: 28.0155 Average ROB Occupancy at Mispredict: 15.133

Branch types
NOT_BRANCH: 748751390 74.8751%
BRANCH_DIRECT_JUMP: 26840018 2.684%
BRANCH_INDIRECT: 0 0%
BRANCH_CONDITIONAL: 170587008 17.0587%
BRANCH_DIRECT_CALL: 25420991 2.5421%
BRANCH_INDIRECT_CALL: 1489642 0.148964%
BRANCH_RETURN: 26910634 2.69106%
BRANCH_OTHER: 0 0%

