
*** ChampSim Multicore Out-of-Order Simulator ***

Warmup Instructions: 100000000
Simulation Instructions: 1000000000
Number of CPUs: 1
LLC sets: 2048
LLC ways: 16
Off-chip DRAM Size: 4096 MB Channels: 1 Width: 64-bit Data Rate: 3200 MT/s

CPU 0 runs /scratch/user/kevin.weston/dpc3-traces/605.champsimtrace.xz
CPU 0 Bimodal branch predictor
Initialize RRPV
Initialize PRRIP state
Heartbeat CPU 0 instructions: 10000000 cycles: 4110944 heartbeat IPC: 2.43253 cumulative IPC: 2.43253 (Simulation time: 0 hr 0 min 25 sec) 
Heartbeat CPU 0 instructions: 20000000 cycles: 8227976 heartbeat IPC: 2.42893 cumulative IPC: 2.43073 (Simulation time: 0 hr 0 min 49 sec) 
Heartbeat CPU 0 instructions: 30000002 cycles: 12331453 heartbeat IPC: 2.43696 cumulative IPC: 2.4328 (Simulation time: 0 hr 1 min 13 sec) 
Heartbeat CPU 0 instructions: 40000000 cycles: 16439437 heartbeat IPC: 2.43428 cumulative IPC: 2.43317 (Simulation time: 0 hr 1 min 37 sec) 
Heartbeat CPU 0 instructions: 50000000 cycles: 20544173 heartbeat IPC: 2.43621 cumulative IPC: 2.43378 (Simulation time: 0 hr 2 min 2 sec) 
Heartbeat CPU 0 instructions: 60000003 cycles: 24649555 heartbeat IPC: 2.43583 cumulative IPC: 2.43412 (Simulation time: 0 hr 2 min 26 sec) 
Heartbeat CPU 0 instructions: 70000003 cycles: 28759266 heartbeat IPC: 2.43326 cumulative IPC: 2.434 (Simulation time: 0 hr 2 min 51 sec) 
Heartbeat CPU 0 instructions: 80000000 cycles: 32868861 heartbeat IPC: 2.43333 cumulative IPC: 2.43391 (Simulation time: 0 hr 3 min 15 sec) 
Heartbeat CPU 0 instructions: 90000000 cycles: 36984938 heartbeat IPC: 2.4295 cumulative IPC: 2.43342 (Simulation time: 0 hr 3 min 39 sec) 
Heartbeat CPU 0 instructions: 100000000 cycles: 41073512 heartbeat IPC: 2.44584 cumulative IPC: 2.43466 (Simulation time: 0 hr 4 min 4 sec) 

Warmup complete CPU 0 instructions: 100000002 cycles: 41073513 (Simulation time: 0 hr 4 min 4 sec) 

Heartbeat CPU 0 instructions: 110000000 cycles: 69256307 heartbeat IPC: 0.354826 cumulative IPC: 0.354826 (Simulation time: 0 hr 4 min 25 sec) 
Heartbeat CPU 0 instructions: 120000000 cycles: 97306739 heartbeat IPC: 0.356501 cumulative IPC: 0.355662 (Simulation time: 0 hr 4 min 46 sec) 
Heartbeat CPU 0 instructions: 130000000 cycles: 125322627 heartbeat IPC: 0.35694 cumulative IPC: 0.356087 (Simulation time: 0 hr 5 min 7 sec) 
Heartbeat CPU 0 instructions: 140000002 cycles: 154067133 heartbeat IPC: 0.347893 cumulative IPC: 0.354002 (Simulation time: 0 hr 5 min 28 sec) 
Heartbeat CPU 0 instructions: 150000000 cycles: 182528391 heartbeat IPC: 0.351355 cumulative IPC: 0.35347 (Simulation time: 0 hr 5 min 48 sec) 
Heartbeat CPU 0 instructions: 160000000 cycles: 210792473 heartbeat IPC: 0.353806 cumulative IPC: 0.353526 (Simulation time: 0 hr 6 min 9 sec) 
Heartbeat CPU 0 instructions: 170000000 cycles: 239831513 heartbeat IPC: 0.344364 cumulative IPC: 0.352187 (Simulation time: 0 hr 6 min 30 sec) 
Heartbeat CPU 0 instructions: 180000001 cycles: 268200389 heartbeat IPC: 0.352499 cumulative IPC: 0.352226 (Simulation time: 0 hr 6 min 51 sec) 
Heartbeat CPU 0 instructions: 190000002 cycles: 296848753 heartbeat IPC: 0.34906 cumulative IPC: 0.351871 (Simulation time: 0 hr 7 min 12 sec) 
Heartbeat CPU 0 instructions: 200000000 cycles: 325590927 heartbeat IPC: 0.347921 cumulative IPC: 0.351472 (Simulation time: 0 hr 7 min 33 sec) 
Heartbeat CPU 0 instructions: 210000003 cycles: 354265026 heartbeat IPC: 0.348747 cumulative IPC: 0.351223 (Simulation time: 0 hr 7 min 54 sec) 
Heartbeat CPU 0 instructions: 220000000 cycles: 382197932 heartbeat IPC: 0.358001 cumulative IPC: 0.351778 (Simulation time: 0 hr 8 min 15 sec) 
Heartbeat CPU 0 instructions: 230000000 cycles: 411409430 heartbeat IPC: 0.342331 cumulative IPC: 0.351033 (Simulation time: 0 hr 8 min 36 sec) 
Heartbeat CPU 0 instructions: 240000000 cycles: 439237704 heartbeat IPC: 0.359347 cumulative IPC: 0.351614 (Simulation time: 0 hr 8 min 57 sec) 
Heartbeat CPU 0 instructions: 250000001 cycles: 467690159 heartbeat IPC: 0.351464 cumulative IPC: 0.351604 (Simulation time: 0 hr 9 min 18 sec) 
Heartbeat CPU 0 instructions: 260000002 cycles: 496214040 heartbeat IPC: 0.350583 cumulative IPC: 0.35154 (Simulation time: 0 hr 9 min 39 sec) 
Heartbeat CPU 0 instructions: 270000000 cycles: 524774467 heartbeat IPC: 0.350135 cumulative IPC: 0.351457 (Simulation time: 0 hr 10 min 0 sec) 
Heartbeat CPU 0 instructions: 280000001 cycles: 553429211 heartbeat IPC: 0.348982 cumulative IPC: 0.351318 (Simulation time: 0 hr 10 min 21 sec) 
Heartbeat CPU 0 instructions: 290000001 cycles: 581549948 heartbeat IPC: 0.355609 cumulative IPC: 0.351542 (Simulation time: 0 hr 10 min 42 sec) 
Heartbeat CPU 0 instructions: 300000000 cycles: 609746684 heartbeat IPC: 0.354651 cumulative IPC: 0.351696 (Simulation time: 0 hr 11 min 3 sec) 
Heartbeat CPU 0 instructions: 310000000 cycles: 636516496 heartbeat IPC: 0.373555 cumulative IPC: 0.352679 (Simulation time: 0 hr 11 min 24 sec) 
Heartbeat CPU 0 instructions: 320000001 cycles: 664283900 heartbeat IPC: 0.360135 cumulative IPC: 0.353011 (Simulation time: 0 hr 11 min 45 sec) 
Heartbeat CPU 0 instructions: 330000000 cycles: 691974061 heartbeat IPC: 0.361139 cumulative IPC: 0.353357 (Simulation time: 0 hr 12 min 6 sec) 
Heartbeat CPU 0 instructions: 340000003 cycles: 719585415 heartbeat IPC: 0.36217 cumulative IPC: 0.353715 (Simulation time: 0 hr 12 min 27 sec) 
Heartbeat CPU 0 instructions: 350000003 cycles: 747100080 heartbeat IPC: 0.363443 cumulative IPC: 0.354094 (Simulation time: 0 hr 12 min 48 sec) 
Heartbeat CPU 0 instructions: 360000003 cycles: 774244971 heartbeat IPC: 0.368393 cumulative IPC: 0.354624 (Simulation time: 0 hr 13 min 9 sec) 
Heartbeat CPU 0 instructions: 370000002 cycles: 801371282 heartbeat IPC: 0.368646 cumulative IPC: 0.355124 (Simulation time: 0 hr 13 min 30 sec) 
Heartbeat CPU 0 instructions: 380000001 cycles: 828866295 heartbeat IPC: 0.363702 cumulative IPC: 0.355423 (Simulation time: 0 hr 13 min 51 sec) 
Heartbeat CPU 0 instructions: 390000000 cycles: 856295175 heartbeat IPC: 0.364579 cumulative IPC: 0.355731 (Simulation time: 0 hr 14 min 12 sec) 
Heartbeat CPU 0 instructions: 400000001 cycles: 883677081 heartbeat IPC: 0.365205 cumulative IPC: 0.356039 (Simulation time: 0 hr 14 min 33 sec) 
Heartbeat CPU 0 instructions: 410000000 cycles: 911313892 heartbeat IPC: 0.361836 cumulative IPC: 0.356223 (Simulation time: 0 hr 14 min 54 sec) 
Heartbeat CPU 0 instructions: 420000003 cycles: 939026062 heartbeat IPC: 0.360852 cumulative IPC: 0.356366 (Simulation time: 0 hr 15 min 15 sec) 
Heartbeat CPU 0 instructions: 430000000 cycles: 966808626 heartbeat IPC: 0.359938 cumulative IPC: 0.356473 (Simulation time: 0 hr 15 min 36 sec) 
Heartbeat CPU 0 instructions: 440000000 cycles: 994508408 heartbeat IPC: 0.361014 cumulative IPC: 0.356605 (Simulation time: 0 hr 15 min 57 sec) 
Heartbeat CPU 0 instructions: 450000000 cycles: 1022680344 heartbeat IPC: 0.354963 cumulative IPC: 0.356558 (Simulation time: 0 hr 16 min 18 sec) 
Heartbeat CPU 0 instructions: 460000001 cycles: 1050904875 heartbeat IPC: 0.354302 cumulative IPC: 0.356495 (Simulation time: 0 hr 16 min 39 sec) 
Heartbeat CPU 0 instructions: 470000003 cycles: 1079777543 heartbeat IPC: 0.346348 cumulative IPC: 0.356213 (Simulation time: 0 hr 17 min 1 sec) 
Heartbeat CPU 0 instructions: 480000000 cycles: 1108039535 heartbeat IPC: 0.353832 cumulative IPC: 0.35615 (Simulation time: 0 hr 17 min 22 sec) 
Heartbeat CPU 0 instructions: 490000003 cycles: 1136345001 heartbeat IPC: 0.353289 cumulative IPC: 0.356076 (Simulation time: 0 hr 17 min 43 sec) 
Heartbeat CPU 0 instructions: 500000000 cycles: 1165308274 heartbeat IPC: 0.345265 cumulative IPC: 0.355798 (Simulation time: 0 hr 18 min 4 sec) 
Heartbeat CPU 0 instructions: 510000001 cycles: 1193491684 heartbeat IPC: 0.354819 cumulative IPC: 0.355774 (Simulation time: 0 hr 18 min 25 sec) 
Heartbeat CPU 0 instructions: 520000000 cycles: 1221812757 heartbeat IPC: 0.353094 cumulative IPC: 0.355709 (Simulation time: 0 hr 18 min 46 sec) 
Heartbeat CPU 0 instructions: 530000003 cycles: 1250744571 heartbeat IPC: 0.34564 cumulative IPC: 0.355469 (Simulation time: 0 hr 19 min 8 sec) 
Heartbeat CPU 0 instructions: 540000003 cycles: 1279024576 heartbeat IPC: 0.353607 cumulative IPC: 0.355426 (Simulation time: 0 hr 19 min 29 sec) 
Heartbeat CPU 0 instructions: 550000000 cycles: 1307866303 heartbeat IPC: 0.34672 cumulative IPC: 0.355228 (Simulation time: 0 hr 19 min 50 sec) 
Heartbeat CPU 0 instructions: 560000000 cycles: 1336881793 heartbeat IPC: 0.344644 cumulative IPC: 0.354991 (Simulation time: 0 hr 20 min 11 sec) 
Heartbeat CPU 0 instructions: 570000000 cycles: 1373016544 heartbeat IPC: 0.276742 cumulative IPC: 0.352868 (Simulation time: 0 hr 20 min 34 sec) 
Heartbeat CPU 0 instructions: 580000001 cycles: 1401308675 heartbeat IPC: 0.353455 cumulative IPC: 0.35288 (Simulation time: 0 hr 20 min 55 sec) 
Heartbeat CPU 0 instructions: 590000000 cycles: 1430108213 heartbeat IPC: 0.347228 cumulative IPC: 0.352763 (Simulation time: 0 hr 21 min 16 sec) 
Heartbeat CPU 0 instructions: 600000000 cycles: 1458994139 heartbeat IPC: 0.346189 cumulative IPC: 0.352629 (Simulation time: 0 hr 21 min 37 sec) 
Heartbeat CPU 0 instructions: 610000001 cycles: 1487748017 heartbeat IPC: 0.347779 cumulative IPC: 0.352533 (Simulation time: 0 hr 21 min 59 sec) 
Heartbeat CPU 0 instructions: 620000001 cycles: 1515984751 heartbeat IPC: 0.354149 cumulative IPC: 0.352564 (Simulation time: 0 hr 22 min 20 sec) 
Heartbeat CPU 0 instructions: 630000001 cycles: 1544997514 heartbeat IPC: 0.344676 cumulative IPC: 0.352411 (Simulation time: 0 hr 22 min 41 sec) 
Heartbeat CPU 0 instructions: 640000002 cycles: 1574075286 heartbeat IPC: 0.343905 cumulative IPC: 0.35225 (Simulation time: 0 hr 23 min 3 sec) 
Heartbeat CPU 0 instructions: 650000000 cycles: 1602725856 heartbeat IPC: 0.349033 cumulative IPC: 0.352191 (Simulation time: 0 hr 23 min 24 sec) 
Heartbeat CPU 0 instructions: 660000000 cycles: 1631657747 heartbeat IPC: 0.345639 cumulative IPC: 0.352072 (Simulation time: 0 hr 23 min 46 sec) 
Heartbeat CPU 0 instructions: 670000002 cycles: 1660791068 heartbeat IPC: 0.34325 cumulative IPC: 0.351913 (Simulation time: 0 hr 24 min 7 sec) 
Heartbeat CPU 0 instructions: 680000000 cycles: 1689937739 heartbeat IPC: 0.343092 cumulative IPC: 0.351757 (Simulation time: 0 hr 24 min 29 sec) 
Heartbeat CPU 0 instructions: 690000002 cycles: 1718593858 heartbeat IPC: 0.348966 cumulative IPC: 0.35171 (Simulation time: 0 hr 24 min 50 sec) 
Heartbeat CPU 0 instructions: 700000000 cycles: 1747842601 heartbeat IPC: 0.341895 cumulative IPC: 0.351541 (Simulation time: 0 hr 25 min 11 sec) 
Heartbeat CPU 0 instructions: 710000000 cycles: 1776998136 heartbeat IPC: 0.342988 cumulative IPC: 0.351398 (Simulation time: 0 hr 25 min 33 sec) 
Heartbeat CPU 0 instructions: 720000000 cycles: 1806311920 heartbeat IPC: 0.341136 cumulative IPC: 0.351227 (Simulation time: 0 hr 25 min 54 sec) 
Heartbeat CPU 0 instructions: 730000000 cycles: 1835753469 heartbeat IPC: 0.339656 cumulative IPC: 0.351038 (Simulation time: 0 hr 26 min 16 sec) 
Heartbeat CPU 0 instructions: 740000002 cycles: 1865028233 heartbeat IPC: 0.341591 cumulative IPC: 0.350886 (Simulation time: 0 hr 26 min 38 sec) 
Heartbeat CPU 0 instructions: 750000001 cycles: 1894202192 heartbeat IPC: 0.342771 cumulative IPC: 0.350758 (Simulation time: 0 hr 26 min 59 sec) 
Heartbeat CPU 0 instructions: 760000002 cycles: 1924057231 heartbeat IPC: 0.334952 cumulative IPC: 0.350508 (Simulation time: 0 hr 27 min 21 sec) 
Heartbeat CPU 0 instructions: 770000000 cycles: 1953825932 heartbeat IPC: 0.335923 cumulative IPC: 0.350281 (Simulation time: 0 hr 27 min 43 sec) 
Heartbeat CPU 0 instructions: 780000003 cycles: 1983392154 heartbeat IPC: 0.338224 cumulative IPC: 0.350097 (Simulation time: 0 hr 28 min 4 sec) 
Heartbeat CPU 0 instructions: 790000001 cycles: 2012765638 heartbeat IPC: 0.340443 cumulative IPC: 0.349953 (Simulation time: 0 hr 28 min 26 sec) 
Heartbeat CPU 0 instructions: 800000000 cycles: 2043444715 heartbeat IPC: 0.325955 cumulative IPC: 0.349586 (Simulation time: 0 hr 28 min 48 sec) 
Heartbeat CPU 0 instructions: 810000003 cycles: 2073422834 heartbeat IPC: 0.333577 cumulative IPC: 0.349349 (Simulation time: 0 hr 29 min 10 sec) 
Heartbeat CPU 0 instructions: 820000002 cycles: 2103401552 heartbeat IPC: 0.33357 cumulative IPC: 0.34912 (Simulation time: 0 hr 29 min 33 sec) 
Heartbeat CPU 0 instructions: 830000000 cycles: 2133500528 heartbeat IPC: 0.332237 cumulative IPC: 0.348877 (Simulation time: 0 hr 29 min 55 sec) 
Heartbeat CPU 0 instructions: 840000001 cycles: 2163250319 heartbeat IPC: 0.336137 cumulative IPC: 0.348699 (Simulation time: 0 hr 30 min 18 sec) 
Heartbeat CPU 0 instructions: 850000001 cycles: 2194339826 heartbeat IPC: 0.321652 cumulative IPC: 0.348308 (Simulation time: 0 hr 30 min 40 sec) 
Heartbeat CPU 0 instructions: 860000002 cycles: 2224181514 heartbeat IPC: 0.335102 cumulative IPC: 0.348128 (Simulation time: 0 hr 31 min 3 sec) 
Heartbeat CPU 0 instructions: 870000001 cycles: 2254222265 heartbeat IPC: 0.332881 cumulative IPC: 0.347921 (Simulation time: 0 hr 31 min 26 sec) 
Heartbeat CPU 0 instructions: 880000000 cycles: 2284402298 heartbeat IPC: 0.331345 cumulative IPC: 0.347698 (Simulation time: 0 hr 31 min 49 sec) 
Heartbeat CPU 0 instructions: 890000000 cycles: 2314910039 heartbeat IPC: 0.327786 cumulative IPC: 0.34743 (Simulation time: 0 hr 32 min 12 sec) 
Heartbeat CPU 0 instructions: 900000000 cycles: 2345203571 heartbeat IPC: 0.330103 cumulative IPC: 0.347203 (Simulation time: 0 hr 32 min 35 sec) 
Heartbeat CPU 0 instructions: 910000003 cycles: 2375038947 heartbeat IPC: 0.335173 cumulative IPC: 0.347049 (Simulation time: 0 hr 32 min 58 sec) 
Heartbeat CPU 0 instructions: 920000001 cycles: 2405684298 heartbeat IPC: 0.326314 cumulative IPC: 0.34678 (Simulation time: 0 hr 33 min 21 sec) 
Heartbeat CPU 0 instructions: 930000003 cycles: 2436062768 heartbeat IPC: 0.329181 cumulative IPC: 0.346557 (Simulation time: 0 hr 33 min 44 sec) 
Heartbeat CPU 0 instructions: 940000000 cycles: 2466381043 heartbeat IPC: 0.329834 cumulative IPC: 0.346348 (Simulation time: 0 hr 34 min 7 sec) 
Heartbeat CPU 0 instructions: 950000001 cycles: 2496807066 heartbeat IPC: 0.328666 cumulative IPC: 0.346129 (Simulation time: 0 hr 34 min 30 sec) 
Heartbeat CPU 0 instructions: 960000001 cycles: 2527017729 heartbeat IPC: 0.331009 cumulative IPC: 0.345945 (Simulation time: 0 hr 34 min 53 sec) 
Heartbeat CPU 0 instructions: 970000002 cycles: 2557657645 heartbeat IPC: 0.326372 cumulative IPC: 0.345707 (Simulation time: 0 hr 35 min 16 sec) 
Heartbeat CPU 0 instructions: 980000003 cycles: 2587854448 heartbeat IPC: 0.331161 cumulative IPC: 0.345534 (Simulation time: 0 hr 35 min 39 sec) 
Heartbeat CPU 0 instructions: 990000000 cycles: 2617694737 heartbeat IPC: 0.335117 cumulative IPC: 0.345414 (Simulation time: 0 hr 36 min 1 sec) 
Heartbeat CPU 0 instructions: 1000000002 cycles: 2647596016 heartbeat IPC: 0.334434 cumulative IPC: 0.345288 (Simulation time: 0 hr 36 min 24 sec) 
Heartbeat CPU 0 instructions: 1010000002 cycles: 2677620210 heartbeat IPC: 0.333065 cumulative IPC: 0.345148 (Simulation time: 0 hr 36 min 46 sec) 
Heartbeat CPU 0 instructions: 1020000002 cycles: 2708167910 heartbeat IPC: 0.327357 cumulative IPC: 0.344945 (Simulation time: 0 hr 37 min 9 sec) 
Heartbeat CPU 0 instructions: 1030000003 cycles: 2737939133 heartbeat IPC: 0.335895 cumulative IPC: 0.344845 (Simulation time: 0 hr 37 min 32 sec) 
Heartbeat CPU 0 instructions: 1040000001 cycles: 2767874759 heartbeat IPC: 0.33405 cumulative IPC: 0.344726 (Simulation time: 0 hr 37 min 54 sec) 
Heartbeat CPU 0 instructions: 1050000000 cycles: 2797707736 heartbeat IPC: 0.3352 cumulative IPC: 0.344623 (Simulation time: 0 hr 38 min 16 sec) 
Heartbeat CPU 0 instructions: 1060000000 cycles: 2827673023 heartbeat IPC: 0.333719 cumulative IPC: 0.344506 (Simulation time: 0 hr 38 min 38 sec) 
Heartbeat CPU 0 instructions: 1070000003 cycles: 2857488735 heartbeat IPC: 0.335394 cumulative IPC: 0.344409 (Simulation time: 0 hr 39 min 0 sec) 
Heartbeat CPU 0 instructions: 1080000000 cycles: 2887299241 heartbeat IPC: 0.335452 cumulative IPC: 0.344316 (Simulation time: 0 hr 39 min 22 sec) 
Heartbeat CPU 0 instructions: 1090000002 cycles: 2917426467 heartbeat IPC: 0.331926 cumulative IPC: 0.344186 (Simulation time: 0 hr 39 min 44 sec) 
Heartbeat CPU 0 instructions: 1100000000 cycles: 2947026509 heartbeat IPC: 0.337837 cumulative IPC: 0.344121 (Simulation time: 0 hr 40 min 6 sec) 
Finished CPU 0 instructions: 1000000000 cycles: 2905952997 cumulative IPC: 0.344121 (Simulation time: 0 hr 40 min 6 sec) 

ChampSim completed all CPUs

Region of Interest Statistics

CPU 0 cumulative IPC: 0.344121 instructions: 1000000000 cycles: 2905952997
L1D TOTAL     ACCESS:  369929536  HIT:  329923783  MISS:   40005753
L1D LOAD      ACCESS:  260998940  HIT:  224711237  MISS:   36287703
L1D RFO       ACCESS:  108930596  HIT:  105212546  MISS:    3718050
L1D PREFETCH  ACCESS:          0  HIT:          0  MISS:          0
L1D WRITEBACK ACCESS:          0  HIT:          0  MISS:          0
L1D PREFETCH  REQUESTED:          0  ISSUED:          0  USEFUL:          0  USELESS:          0
L1D AVERAGE MISS LATENCY: 78.8364 cycles
L1I TOTAL     ACCESS:  194994914  HIT:  194994912  MISS:          2
L1I LOAD      ACCESS:  194994914  HIT:  194994912  MISS:          2
L1I RFO       ACCESS:          0  HIT:          0  MISS:          0
L1I PREFETCH  ACCESS:          0  HIT:          0  MISS:          0
L1I WRITEBACK ACCESS:          0  HIT:          0  MISS:          0
L1I PREFETCH  REQUESTED:          0  ISSUED:          0  USEFUL:          0  USELESS:          0
L1I AVERAGE MISS LATENCY: 215 cycles
L2C TOTAL     ACCESS:   45580702  HIT:   14674953  MISS:   30905749
L2C LOAD      ACCESS:   36287556  HIT:    8272839  MISS:   28014717
L2C RFO       ACCESS:    3717996  HIT:     835643  MISS:    2882353
L2C PREFETCH  ACCESS:          0  HIT:          0  MISS:          0
L2C WRITEBACK ACCESS:    5575150  HIT:    5566471  MISS:       8679
L2C PREFETCH  REQUESTED:          0  ISSUED:          0  USEFUL:          0  USELESS:          0
L2C AVERAGE MISS LATENCY: 82.1832 cycles
LLC TOTAL     ACCESS:   35157999  HIT:   22229050  MISS:   12928949
LLC LOAD      ACCESS:   28014684  HIT:   15141322  MISS:   12873362
LLC RFO       ACCESS:    2882320  HIT:    2876813  MISS:       5507
LLC PREFETCH  ACCESS:          0  HIT:          0  MISS:          0
LLC WRITEBACK ACCESS:    4260995  HIT:    4210915  MISS:      50080
LLC PREFETCH  REQUESTED:          0  ISSUED:          0  USEFUL:          0  USELESS:          0
LLC AVERAGE MISS LATENCY: 123.43 cycles
Major fault: 0 Minor fault: 151086
==============================
Perceptron RRIP Stats:
   Num Updates: 33903096
   Num Trains:  698282
==============================
perceptron #0: 0 0 0 0 2 2 0 -4 -2 0 -2 2 2 2 -4 -20 


DRAM Statistics
 CHANNEL 0
 RQ ROW_BUFFER_HIT:    6578031  ROW_BUFFER_MISS:    6300836
 DBUS_CONGESTED:    1850170
 WQ ROW_BUFFER_HIT:      35561  ROW_BUFFER_MISS:      42208  FULL:          0

 AVG_CONGESTED_CYCLE: 5

CPU 0 Branch Prediction Accuracy: 88.8495% MPKI: 28.0155 Average ROB Occupancy at Mispredict: 15.1357

Branch types
NOT_BRANCH: 748751390 74.8751%
BRANCH_DIRECT_JUMP: 26840018 2.684%
BRANCH_INDIRECT: 0 0%
BRANCH_CONDITIONAL: 170587008 17.0587%
BRANCH_DIRECT_CALL: 25420991 2.5421%
BRANCH_INDIRECT_CALL: 1489642 0.148964%
BRANCH_RETURN: 26910634 2.69106%
BRANCH_OTHER: 0 0%

