
*** ChampSim Multicore Out-of-Order Simulator ***

Warmup Instructions: 100000000
Simulation Instructions: 1000000000
Number of CPUs: 1
LLC sets: 2048
LLC ways: 16
Off-chip DRAM Size: 4096 MB Channels: 1 Width: 64-bit Data Rate: 3200 MT/s

CPU 0 runs /scratch/user/kevin.weston/dpc3-traces/607.champsimtrace.xz
CPU 0 Bimodal branch predictor
Initialize RRPV
Initialize PRRIP state
Heartbeat CPU 0 instructions: 10000002 cycles: 4831579 heartbeat IPC: 2.06972 cumulative IPC: 2.06972 (Simulation time: 0 hr 0 min 27 sec) 
Heartbeat CPU 0 instructions: 20000001 cycles: 9660022 heartbeat IPC: 2.07106 cumulative IPC: 2.07039 (Simulation time: 0 hr 0 min 54 sec) 
Heartbeat CPU 0 instructions: 30000002 cycles: 14491267 heartbeat IPC: 2.06986 cumulative IPC: 2.07021 (Simulation time: 0 hr 1 min 21 sec) 
Heartbeat CPU 0 instructions: 40000001 cycles: 19321910 heartbeat IPC: 2.07012 cumulative IPC: 2.07019 (Simulation time: 0 hr 1 min 47 sec) 
Heartbeat CPU 0 instructions: 50000000 cycles: 24153363 heartbeat IPC: 2.06977 cumulative IPC: 2.07011 (Simulation time: 0 hr 2 min 14 sec) 
Heartbeat CPU 0 instructions: 60000000 cycles: 28001971 heartbeat IPC: 2.59834 cumulative IPC: 2.14271 (Simulation time: 0 hr 2 min 38 sec) 
Heartbeat CPU 0 instructions: 70000001 cycles: 31611832 heartbeat IPC: 2.77019 cumulative IPC: 2.21436 (Simulation time: 0 hr 3 min 1 sec) 
Heartbeat CPU 0 instructions: 80000003 cycles: 35219555 heartbeat IPC: 2.77183 cumulative IPC: 2.27147 (Simulation time: 0 hr 3 min 24 sec) 
Heartbeat CPU 0 instructions: 90000001 cycles: 38828166 heartbeat IPC: 2.77115 cumulative IPC: 2.3179 (Simulation time: 0 hr 3 min 47 sec) 
Heartbeat CPU 0 instructions: 100000000 cycles: 42437856 heartbeat IPC: 2.77032 cumulative IPC: 2.35639 (Simulation time: 0 hr 4 min 10 sec) 

Warmup complete CPU 0 instructions: 100000004 cycles: 42437857 (Simulation time: 0 hr 4 min 10 sec) 

Heartbeat CPU 0 instructions: 110000000 cycles: 51966905 heartbeat IPC: 1.04942 cumulative IPC: 1.04942 (Simulation time: 0 hr 4 min 38 sec) 
Heartbeat CPU 0 instructions: 120000000 cycles: 61630369 heartbeat IPC: 1.03483 cumulative IPC: 1.04207 (Simulation time: 0 hr 5 min 6 sec) 
Heartbeat CPU 0 instructions: 130000002 cycles: 71190193 heartbeat IPC: 1.04604 cumulative IPC: 1.04339 (Simulation time: 0 hr 5 min 34 sec) 
Heartbeat CPU 0 instructions: 140000002 cycles: 80802563 heartbeat IPC: 1.04033 cumulative IPC: 1.04262 (Simulation time: 0 hr 6 min 2 sec) 
Heartbeat CPU 0 instructions: 150000003 cycles: 90874243 heartbeat IPC: 0.992883 cumulative IPC: 1.03228 (Simulation time: 0 hr 6 min 31 sec) 
Heartbeat CPU 0 instructions: 160000002 cycles: 100092860 heartbeat IPC: 1.08476 cumulative IPC: 1.04067 (Simulation time: 0 hr 6 min 59 sec) 
Heartbeat CPU 0 instructions: 170000002 cycles: 109455125 heartbeat IPC: 1.06812 cumulative IPC: 1.04451 (Simulation time: 0 hr 7 min 27 sec) 
Heartbeat CPU 0 instructions: 180000001 cycles: 118918691 heartbeat IPC: 1.05668 cumulative IPC: 1.04601 (Simulation time: 0 hr 7 min 55 sec) 
Heartbeat CPU 0 instructions: 190000000 cycles: 128240322 heartbeat IPC: 1.07277 cumulative IPC: 1.04892 (Simulation time: 0 hr 8 min 22 sec) 
Heartbeat CPU 0 instructions: 200000003 cycles: 137617716 heartbeat IPC: 1.06639 cumulative IPC: 1.05064 (Simulation time: 0 hr 8 min 50 sec) 
Heartbeat CPU 0 instructions: 210000001 cycles: 147054313 heartbeat IPC: 1.0597 cumulative IPC: 1.05146 (Simulation time: 0 hr 9 min 18 sec) 
Heartbeat CPU 0 instructions: 220000000 cycles: 156451423 heartbeat IPC: 1.06416 cumulative IPC: 1.05251 (Simulation time: 0 hr 9 min 47 sec) 
Heartbeat CPU 0 instructions: 230000003 cycles: 165928429 heartbeat IPC: 1.05519 cumulative IPC: 1.05271 (Simulation time: 0 hr 10 min 15 sec) 
Heartbeat CPU 0 instructions: 240000000 cycles: 175702081 heartbeat IPC: 1.02316 cumulative IPC: 1.05054 (Simulation time: 0 hr 10 min 43 sec) 
Heartbeat CPU 0 instructions: 250000002 cycles: 185429505 heartbeat IPC: 1.02802 cumulative IPC: 1.04901 (Simulation time: 0 hr 11 min 11 sec) 
Heartbeat CPU 0 instructions: 260000001 cycles: 194835156 heartbeat IPC: 1.06319 cumulative IPC: 1.04989 (Simulation time: 0 hr 11 min 39 sec) 
Heartbeat CPU 0 instructions: 270000002 cycles: 204232987 heartbeat IPC: 1.06408 cumulative IPC: 1.05071 (Simulation time: 0 hr 12 min 7 sec) 
Heartbeat CPU 0 instructions: 280000000 cycles: 213638551 heartbeat IPC: 1.0632 cumulative IPC: 1.0514 (Simulation time: 0 hr 12 min 35 sec) 
Heartbeat CPU 0 instructions: 290000001 cycles: 223122845 heartbeat IPC: 1.05437 cumulative IPC: 1.05155 (Simulation time: 0 hr 13 min 4 sec) 
Heartbeat CPU 0 instructions: 300000001 cycles: 232553554 heartbeat IPC: 1.06037 cumulative IPC: 1.05199 (Simulation time: 0 hr 13 min 32 sec) 
Heartbeat CPU 0 instructions: 310000001 cycles: 242058621 heartbeat IPC: 1.05207 cumulative IPC: 1.05199 (Simulation time: 0 hr 14 min 0 sec) 
Heartbeat CPU 0 instructions: 320000002 cycles: 251915283 heartbeat IPC: 1.01454 cumulative IPC: 1.05023 (Simulation time: 0 hr 14 min 28 sec) 
Heartbeat CPU 0 instructions: 330000000 cycles: 261504062 heartbeat IPC: 1.04289 cumulative IPC: 1.04991 (Simulation time: 0 hr 14 min 57 sec) 
Heartbeat CPU 0 instructions: 340000003 cycles: 271875366 heartbeat IPC: 0.964199 cumulative IPC: 1.04604 (Simulation time: 0 hr 15 min 25 sec) 
Heartbeat CPU 0 instructions: 350000000 cycles: 281363043 heartbeat IPC: 1.054 cumulative IPC: 1.04635 (Simulation time: 0 hr 15 min 54 sec) 
Heartbeat CPU 0 instructions: 360000003 cycles: 290770858 heartbeat IPC: 1.06295 cumulative IPC: 1.04698 (Simulation time: 0 hr 16 min 22 sec) 
Heartbeat CPU 0 instructions: 370000002 cycles: 300252841 heartbeat IPC: 1.05463 cumulative IPC: 1.04726 (Simulation time: 0 hr 16 min 50 sec) 
Heartbeat CPU 0 instructions: 380000003 cycles: 309657599 heartbeat IPC: 1.06329 cumulative IPC: 1.04783 (Simulation time: 0 hr 17 min 18 sec) 
Heartbeat CPU 0 instructions: 390000003 cycles: 319122924 heartbeat IPC: 1.05649 cumulative IPC: 1.04812 (Simulation time: 0 hr 17 min 46 sec) 
Heartbeat CPU 0 instructions: 400000000 cycles: 328618640 heartbeat IPC: 1.05311 cumulative IPC: 1.04829 (Simulation time: 0 hr 18 min 14 sec) 
Heartbeat CPU 0 instructions: 410000002 cycles: 338103990 heartbeat IPC: 1.05426 cumulative IPC: 1.04848 (Simulation time: 0 hr 18 min 42 sec) 
Heartbeat CPU 0 instructions: 420000001 cycles: 347792542 heartbeat IPC: 1.03215 cumulative IPC: 1.04796 (Simulation time: 0 hr 19 min 11 sec) 
Heartbeat CPU 0 instructions: 430000001 cycles: 357806681 heartbeat IPC: 0.998588 cumulative IPC: 1.04639 (Simulation time: 0 hr 19 min 39 sec) 
Heartbeat CPU 0 instructions: 440000000 cycles: 367169494 heartbeat IPC: 1.06806 cumulative IPC: 1.04702 (Simulation time: 0 hr 20 min 7 sec) 
Heartbeat CPU 0 instructions: 450000001 cycles: 376405141 heartbeat IPC: 1.08276 cumulative IPC: 1.04801 (Simulation time: 0 hr 20 min 35 sec) 
Heartbeat CPU 0 instructions: 460000001 cycles: 385684066 heartbeat IPC: 1.07771 cumulative IPC: 1.04881 (Simulation time: 0 hr 21 min 3 sec) 
Heartbeat CPU 0 instructions: 470000003 cycles: 395267926 heartbeat IPC: 1.04342 cumulative IPC: 1.04866 (Simulation time: 0 hr 21 min 32 sec) 
Heartbeat CPU 0 instructions: 480000003 cycles: 404441049 heartbeat IPC: 1.09014 cumulative IPC: 1.04971 (Simulation time: 0 hr 22 min 0 sec) 
Heartbeat CPU 0 instructions: 490000001 cycles: 413756477 heartbeat IPC: 1.07349 cumulative IPC: 1.05031 (Simulation time: 0 hr 22 min 28 sec) 
Heartbeat CPU 0 instructions: 500000003 cycles: 423049862 heartbeat IPC: 1.07603 cumulative IPC: 1.05094 (Simulation time: 0 hr 22 min 56 sec) 
Heartbeat CPU 0 instructions: 510000002 cycles: 432441674 heartbeat IPC: 1.06476 cumulative IPC: 1.05127 (Simulation time: 0 hr 23 min 24 sec) 
Heartbeat CPU 0 instructions: 520000001 cycles: 442052920 heartbeat IPC: 1.04045 cumulative IPC: 1.05101 (Simulation time: 0 hr 23 min 52 sec) 
Heartbeat CPU 0 instructions: 530000000 cycles: 451278320 heartbeat IPC: 1.08396 cumulative IPC: 1.05175 (Simulation time: 0 hr 24 min 20 sec) 
Heartbeat CPU 0 instructions: 540000001 cycles: 460538670 heartbeat IPC: 1.07987 cumulative IPC: 1.05238 (Simulation time: 0 hr 24 min 48 sec) 
Heartbeat CPU 0 instructions: 550000000 cycles: 469721469 heartbeat IPC: 1.08899 cumulative IPC: 1.05316 (Simulation time: 0 hr 25 min 16 sec) 
Heartbeat CPU 0 instructions: 560000002 cycles: 479271552 heartbeat IPC: 1.04711 cumulative IPC: 1.05303 (Simulation time: 0 hr 25 min 45 sec) 
Heartbeat CPU 0 instructions: 570000003 cycles: 488574956 heartbeat IPC: 1.07488 cumulative IPC: 1.05349 (Simulation time: 0 hr 26 min 13 sec) 
Heartbeat CPU 0 instructions: 580000001 cycles: 497743297 heartbeat IPC: 1.09071 cumulative IPC: 1.05424 (Simulation time: 0 hr 26 min 41 sec) 
Heartbeat CPU 0 instructions: 590000003 cycles: 507126973 heartbeat IPC: 1.06568 cumulative IPC: 1.05447 (Simulation time: 0 hr 27 min 9 sec) 
Heartbeat CPU 0 instructions: 600000000 cycles: 516400753 heartbeat IPC: 1.07831 cumulative IPC: 1.05493 (Simulation time: 0 hr 27 min 38 sec) 
Heartbeat CPU 0 instructions: 610000003 cycles: 525931154 heartbeat IPC: 1.04927 cumulative IPC: 1.05482 (Simulation time: 0 hr 28 min 6 sec) 
Heartbeat CPU 0 instructions: 620000003 cycles: 535699598 heartbeat IPC: 1.0237 cumulative IPC: 1.05421 (Simulation time: 0 hr 28 min 35 sec) 
Heartbeat CPU 0 instructions: 630000001 cycles: 545065865 heartbeat IPC: 1.06766 cumulative IPC: 1.05446 (Simulation time: 0 hr 29 min 3 sec) 
Heartbeat CPU 0 instructions: 640000002 cycles: 554463694 heartbeat IPC: 1.06408 cumulative IPC: 1.05463 (Simulation time: 0 hr 29 min 32 sec) 
Heartbeat CPU 0 instructions: 650000002 cycles: 564099107 heartbeat IPC: 1.03784 cumulative IPC: 1.05432 (Simulation time: 0 hr 30 min 0 sec) 
Heartbeat CPU 0 instructions: 660000000 cycles: 573498843 heartbeat IPC: 1.06386 cumulative IPC: 1.05449 (Simulation time: 0 hr 30 min 29 sec) 
Heartbeat CPU 0 instructions: 670000003 cycles: 583030109 heartbeat IPC: 1.04918 cumulative IPC: 1.0544 (Simulation time: 0 hr 30 min 57 sec) 
Heartbeat CPU 0 instructions: 680000001 cycles: 592503697 heartbeat IPC: 1.05557 cumulative IPC: 1.05442 (Simulation time: 0 hr 31 min 26 sec) 
Heartbeat CPU 0 instructions: 690000002 cycles: 601830884 heartbeat IPC: 1.07213 cumulative IPC: 1.05471 (Simulation time: 0 hr 31 min 54 sec) 
Heartbeat CPU 0 instructions: 700000003 cycles: 611203053 heartbeat IPC: 1.06699 cumulative IPC: 1.05492 (Simulation time: 0 hr 32 min 22 sec) 
Heartbeat CPU 0 instructions: 710000003 cycles: 621026918 heartbeat IPC: 1.01793 cumulative IPC: 1.05429 (Simulation time: 0 hr 32 min 50 sec) 
Heartbeat CPU 0 instructions: 720000000 cycles: 630283007 heartbeat IPC: 1.08037 cumulative IPC: 1.0547 (Simulation time: 0 hr 33 min 18 sec) 
Heartbeat CPU 0 instructions: 730000003 cycles: 639661794 heartbeat IPC: 1.06624 cumulative IPC: 1.05488 (Simulation time: 0 hr 33 min 46 sec) 
Heartbeat CPU 0 instructions: 740000003 cycles: 648931845 heartbeat IPC: 1.07874 cumulative IPC: 1.05525 (Simulation time: 0 hr 34 min 14 sec) 
Heartbeat CPU 0 instructions: 750000001 cycles: 658424491 heartbeat IPC: 1.05345 cumulative IPC: 1.05522 (Simulation time: 0 hr 34 min 42 sec) 
Heartbeat CPU 0 instructions: 760000003 cycles: 667690667 heartbeat IPC: 1.07919 cumulative IPC: 1.05557 (Simulation time: 0 hr 35 min 10 sec) 
Heartbeat CPU 0 instructions: 770000000 cycles: 677079035 heartbeat IPC: 1.06515 cumulative IPC: 1.05571 (Simulation time: 0 hr 35 min 39 sec) 
Heartbeat CPU 0 instructions: 780000000 cycles: 686340185 heartbeat IPC: 1.07978 cumulative IPC: 1.05606 (Simulation time: 0 hr 36 min 6 sec) 
Heartbeat CPU 0 instructions: 790000000 cycles: 695557739 heartbeat IPC: 1.08489 cumulative IPC: 1.05647 (Simulation time: 0 hr 36 min 34 sec) 
Heartbeat CPU 0 instructions: 800000003 cycles: 705109330 heartbeat IPC: 1.04695 cumulative IPC: 1.05633 (Simulation time: 0 hr 37 min 3 sec) 
Heartbeat CPU 0 instructions: 810000001 cycles: 714478210 heartbeat IPC: 1.06736 cumulative IPC: 1.05648 (Simulation time: 0 hr 37 min 31 sec) 
Heartbeat CPU 0 instructions: 820000000 cycles: 723618777 heartbeat IPC: 1.09402 cumulative IPC: 1.05699 (Simulation time: 0 hr 37 min 58 sec) 
Heartbeat CPU 0 instructions: 830000001 cycles: 732771789 heartbeat IPC: 1.09254 cumulative IPC: 1.05746 (Simulation time: 0 hr 38 min 26 sec) 
Heartbeat CPU 0 instructions: 840000000 cycles: 742137968 heartbeat IPC: 1.06767 cumulative IPC: 1.0576 (Simulation time: 0 hr 38 min 54 sec) 
Heartbeat CPU 0 instructions: 850000002 cycles: 751438957 heartbeat IPC: 1.07515 cumulative IPC: 1.05783 (Simulation time: 0 hr 39 min 22 sec) 
Heartbeat CPU 0 instructions: 860000000 cycles: 760815747 heartbeat IPC: 1.06646 cumulative IPC: 1.05794 (Simulation time: 0 hr 39 min 51 sec) 
Heartbeat CPU 0 instructions: 870000001 cycles: 770123257 heartbeat IPC: 1.0744 cumulative IPC: 1.05815 (Simulation time: 0 hr 40 min 19 sec) 
Heartbeat CPU 0 instructions: 880000000 cycles: 779308725 heartbeat IPC: 1.08868 cumulative IPC: 1.05853 (Simulation time: 0 hr 40 min 47 sec) 
Heartbeat CPU 0 instructions: 890000001 cycles: 788709320 heartbeat IPC: 1.06376 cumulative IPC: 1.0586 (Simulation time: 0 hr 41 min 16 sec) 
Heartbeat CPU 0 instructions: 900000002 cycles: 798035620 heartbeat IPC: 1.07224 cumulative IPC: 1.05876 (Simulation time: 0 hr 41 min 44 sec) 
Heartbeat CPU 0 instructions: 910000002 cycles: 807289093 heartbeat IPC: 1.08068 cumulative IPC: 1.05903 (Simulation time: 0 hr 42 min 12 sec) 
Heartbeat CPU 0 instructions: 920000003 cycles: 816556202 heartbeat IPC: 1.07909 cumulative IPC: 1.05927 (Simulation time: 0 hr 42 min 40 sec) 
Heartbeat CPU 0 instructions: 930000001 cycles: 825759241 heartbeat IPC: 1.0866 cumulative IPC: 1.05959 (Simulation time: 0 hr 43 min 9 sec) 
Heartbeat CPU 0 instructions: 940000002 cycles: 834975421 heartbeat IPC: 1.08505 cumulative IPC: 1.05989 (Simulation time: 0 hr 43 min 37 sec) 
Heartbeat CPU 0 instructions: 950000000 cycles: 844343228 heartbeat IPC: 1.06749 cumulative IPC: 1.05998 (Simulation time: 0 hr 44 min 5 sec) 
Heartbeat CPU 0 instructions: 960000003 cycles: 853769618 heartbeat IPC: 1.06085 cumulative IPC: 1.05999 (Simulation time: 0 hr 44 min 33 sec) 
Heartbeat CPU 0 instructions: 970000002 cycles: 863204999 heartbeat IPC: 1.05984 cumulative IPC: 1.05998 (Simulation time: 0 hr 45 min 1 sec) 
Heartbeat CPU 0 instructions: 980000000 cycles: 872482414 heartbeat IPC: 1.07789 cumulative IPC: 1.06018 (Simulation time: 0 hr 45 min 29 sec) 
Heartbeat CPU 0 instructions: 990000000 cycles: 881902708 heartbeat IPC: 1.06154 cumulative IPC: 1.0602 (Simulation time: 0 hr 45 min 58 sec) 
Heartbeat CPU 0 instructions: 1000000000 cycles: 891207786 heartbeat IPC: 1.07468 cumulative IPC: 1.06036 (Simulation time: 0 hr 46 min 25 sec) 
Heartbeat CPU 0 instructions: 1010000001 cycles: 900468800 heartbeat IPC: 1.0798 cumulative IPC: 1.06057 (Simulation time: 0 hr 46 min 53 sec) 
Heartbeat CPU 0 instructions: 1020000001 cycles: 909587462 heartbeat IPC: 1.09665 cumulative IPC: 1.06095 (Simulation time: 0 hr 47 min 21 sec) 
Heartbeat CPU 0 instructions: 1030000003 cycles: 918919562 heartbeat IPC: 1.07157 cumulative IPC: 1.06106 (Simulation time: 0 hr 47 min 49 sec) 
Heartbeat CPU 0 instructions: 1040000002 cycles: 928174270 heartbeat IPC: 1.08053 cumulative IPC: 1.06126 (Simulation time: 0 hr 48 min 17 sec) 
Heartbeat CPU 0 instructions: 1050000003 cycles: 937388641 heartbeat IPC: 1.08526 cumulative IPC: 1.06151 (Simulation time: 0 hr 48 min 45 sec) 
Heartbeat CPU 0 instructions: 1060000001 cycles: 946583611 heartbeat IPC: 1.08755 cumulative IPC: 1.06178 (Simulation time: 0 hr 49 min 13 sec) 
Heartbeat CPU 0 instructions: 1070000001 cycles: 955777029 heartbeat IPC: 1.08773 cumulative IPC: 1.06204 (Simulation time: 0 hr 49 min 41 sec) 
Heartbeat CPU 0 instructions: 1080000002 cycles: 965405830 heartbeat IPC: 1.03855 cumulative IPC: 1.06179 (Simulation time: 0 hr 50 min 9 sec) 
Heartbeat CPU 0 instructions: 1090000000 cycles: 974991792 heartbeat IPC: 1.04319 cumulative IPC: 1.0616 (Simulation time: 0 hr 50 min 37 sec) 
Heartbeat CPU 0 instructions: 1100000000 cycles: 984198763 heartbeat IPC: 1.08613 cumulative IPC: 1.06184 (Simulation time: 0 hr 51 min 5 sec) 
Finished CPU 0 instructions: 1000000001 cycles: 941760938 cumulative IPC: 1.06184 (Simulation time: 0 hr 51 min 5 sec) 

ChampSim completed all CPUs

Region of Interest Statistics

CPU 0 cumulative IPC: 1.06184 instructions: 1000000001 cycles: 941760938
L1D TOTAL     ACCESS:  282418683  HIT:  168260013  MISS:  114158670
L1D LOAD      ACCESS:  169363377  HIT:   63148629  MISS:  106214748
L1D RFO       ACCESS:  113055306  HIT:  105111384  MISS:    7943922
L1D PREFETCH  ACCESS:          0  HIT:          0  MISS:          0
L1D WRITEBACK ACCESS:          0  HIT:          0  MISS:          0
L1D PREFETCH  REQUESTED:          0  ISSUED:          0  USEFUL:          0  USELESS:          0
L1D AVERAGE MISS LATENCY: 45.2406 cycles
L1I TOTAL     ACCESS:  150195977  HIT:  150195977  MISS:          0
L1I LOAD      ACCESS:  150195977  HIT:  150195977  MISS:          0
L1I RFO       ACCESS:          0  HIT:          0  MISS:          0
L1I PREFETCH  ACCESS:          0  HIT:          0  MISS:          0
L1I WRITEBACK ACCESS:          0  HIT:          0  MISS:          0
L1I PREFETCH  REQUESTED:          0  ISSUED:          0  USEFUL:          0  USELESS:          0
L1I AVERAGE MISS LATENCY: -nan cycles
L2C TOTAL     ACCESS:  122461355  HIT:   91148802  MISS:   31312553
L2C LOAD      ACCESS:  105633074  HIT:   78417194  MISS:   27215880
L2C RFO       ACCESS:    7926894  HIT:    3832195  MISS:    4094699
L2C PREFETCH  ACCESS:          0  HIT:          0  MISS:          0
L2C WRITEBACK ACCESS:    8901387  HIT:    8899413  MISS:       1974
L2C PREFETCH  REQUESTED:          0  ISSUED:          0  USEFUL:          0  USELESS:          0
L2C AVERAGE MISS LATENCY: 105.868 cycles
LLC TOTAL     ACCESS:   35371568  HIT:   26880517  MISS:    8491051
LLC LOAD      ACCESS:   27207754  HIT:   19003135  MISS:    8204619
LLC RFO       ACCESS:    3627538  HIT:    3497532  MISS:     130006
LLC PREFETCH  ACCESS:          0  HIT:          0  MISS:          0
LLC WRITEBACK ACCESS:    4536276  HIT:    4379850  MISS:     156426
LLC PREFETCH  REQUESTED:          0  ISSUED:          0  USEFUL:          0  USELESS:          0
LLC AVERAGE MISS LATENCY: 278.593 cycles
Major fault: 0 Minor fault: 43201
==============================
Perceptron RRIP Stats:
   Num Updates: 32888473
   Num Trains:  288672
==============================
perceptron #0: 1 -3 -5 1 1 -3 1 3 5 -1 1 1 -11 

perceptron #1: 2 -4 -6 0 0 -4 2 6 4 0 2 0 -10 

perceptron #2: 1 -5 -5 1 -1 -5 -1 5 3 1 3 -1 -13 

perceptron #3: 3 -5 -3 1 -1 -3 -1 5 3 -1 -1 1 -9 

perceptron #4: 3 -5 -5 1 1 -5 -1 5 3 -1 1 -1 -11 

perceptron #5: 3 -3 -5 1 -1 -5 -1 5 3 1 -1 -1 -11 

perceptron #6: 1 -3 -5 -1 1 -3 -1 5 3 -1 1 1 -11 

perceptron #7: 1 -3 -5 1 -1 -5 1 3 3 1 1 1 -9 

perceptron #8: 4 -6 -6 2 0 -6 0 6 4 -2 0 0 -10 

perceptron #9: 2 -4 -4 0 -2 -2 2 6 4 -2 0 0 -10 

perceptron #10: 2 -2 -4 2 -2 -4 -2 6 6 0 0 -2 -8 

perceptron #11: -2 -6 -4 2 0 -4 0 4 4 -2 0 0 -10 

perceptron #12: 1 -3 -5 1 -1 -5 1 5 3 1 1 3 -11 

perceptron #13: 1 -3 -7 3 -1 -3 -1 5 3 1 1 -1 -11 

perceptron #14: 3 -3 -3 3 -1 -5 -1 5 5 -1 1 1 -11 

perceptron #15: 3 -5 -5 1 1 -7 1 5 5 -1 1 -1 -7 

perceptron #16: 1 -3 -5 -1 1 -3 -1 5 5 -1 -1 -1 -9 

perceptron #17: 2 -2 -4 4 -2 -4 -2 4 6 0 0 0 -10 

perceptron #18: 1 -3 -5 3 -3 -5 1 7 5 1 1 -1 -9 

perceptron #19: 2 -2 -4 0 0 -4 0 8 2 0 0 0 -8 

perceptron #20: 2 -2 -2 -2 0 -4 0 6 4 0 0 4 -6 

perceptron #21: 2 -4 -8 2 0 -6 0 4 4 -2 0 -2 -10 

perceptron #22: 2 -4 -6 2 0 -2 0 4 4 0 0 0 -10 

perceptron #23: 4 -2 -4 0 -2 -4 0 6 4 0 0 0 -6 

perceptron #24: 1 -5 -5 1 -1 -5 -1 5 3 -1 -1 1 -9 

perceptron #25: 3 -3 -5 1 1 -5 3 5 3 1 1 1 -11 

perceptron #26: 4 -4 -4 2 0 -2 -4 4 4 0 0 0 -8 

perceptron #27: 0 -4 -4 4 0 -4 -2 6 6 -2 0 0 -10 

perceptron #28: 2 -6 -4 0 0 -2 0 6 4 0 -2 2 -10 

perceptron #29: 1 -3 -7 1 -1 -5 1 3 3 -5 1 1 -11 

perceptron #30: 1 -3 -5 1 1 -3 1 5 5 1 1 -1 -9 

perceptron #31: 1 -1 -7 1 -1 -5 1 5 3 -3 3 -1 -7 


DRAM Statistics
 CHANNEL 0
 RQ ROW_BUFFER_HIT:    4334215  ROW_BUFFER_MISS:    4000406
 DBUS_CONGESTED:    1193375
 WQ ROW_BUFFER_HIT:     389738  ROW_BUFFER_MISS:     568641  FULL:          0

 AVG_CONGESTED_CYCLE: 6

CPU 0 Branch Prediction Accuracy: 99.8488% MPKI: 0.001793 Average ROB Occupancy at Mispredict: 326.656

Branch types
NOT_BRANCH: 998814142 99.8814%
BRANCH_DIRECT_JUMP: 296912 0.0296912%
BRANCH_INDIRECT: 295123 0.0295123%
BRANCH_CONDITIONAL: 593824 0.0593824%
BRANCH_DIRECT_CALL: 0 0%
BRANCH_INDIRECT_CALL: 0 0%
BRANCH_RETURN: 0 0%
BRANCH_OTHER: 0 0%

