
*** ChampSim Multicore Out-of-Order Simulator ***

Warmup Instructions: 100000000
Simulation Instructions: 1000000000
Number of CPUs: 1
LLC sets: 2048
LLC ways: 16
Off-chip DRAM Size: 4096 MB Channels: 1 Width: 64-bit Data Rate: 3200 MT/s

CPU 0 runs /scratch/user/kevin.weston/dpc3-traces/620.champsimtrace.xz
CPU 0 Bimodal branch predictor
Initialize RRPV
Initialize PRRIP state
Heartbeat CPU 0 instructions: 10000001 cycles: 5583341 heartbeat IPC: 1.79104 cumulative IPC: 1.79104 (Simulation time: 0 hr 0 min 27 sec) 
Heartbeat CPU 0 instructions: 20000000 cycles: 11166788 heartbeat IPC: 1.79101 cumulative IPC: 1.79103 (Simulation time: 0 hr 0 min 54 sec) 
Heartbeat CPU 0 instructions: 30000002 cycles: 16742702 heartbeat IPC: 1.79343 cumulative IPC: 1.79183 (Simulation time: 0 hr 1 min 22 sec) 
Heartbeat CPU 0 instructions: 40000000 cycles: 22334299 heartbeat IPC: 1.7884 cumulative IPC: 1.79097 (Simulation time: 0 hr 1 min 49 sec) 
Heartbeat CPU 0 instructions: 50000000 cycles: 27918526 heartbeat IPC: 1.79076 cumulative IPC: 1.79093 (Simulation time: 0 hr 2 min 16 sec) 
Heartbeat CPU 0 instructions: 60000001 cycles: 33515810 heartbeat IPC: 1.78658 cumulative IPC: 1.7902 (Simulation time: 0 hr 2 min 44 sec) 
Heartbeat CPU 0 instructions: 70000001 cycles: 39094071 heartbeat IPC: 1.79267 cumulative IPC: 1.79055 (Simulation time: 0 hr 3 min 11 sec) 
Heartbeat CPU 0 instructions: 80000001 cycles: 44671891 heartbeat IPC: 1.79282 cumulative IPC: 1.79084 (Simulation time: 0 hr 3 min 38 sec) 
Heartbeat CPU 0 instructions: 90000001 cycles: 50258311 heartbeat IPC: 1.79006 cumulative IPC: 1.79075 (Simulation time: 0 hr 4 min 5 sec) 
Heartbeat CPU 0 instructions: 100000003 cycles: 55847169 heartbeat IPC: 1.78927 cumulative IPC: 1.7906 (Simulation time: 0 hr 4 min 33 sec) 

Warmup complete CPU 0 instructions: 100000003 cycles: 55847169 (Simulation time: 0 hr 4 min 33 sec) 

Heartbeat CPU 0 instructions: 110000000 cycles: 86193238 heartbeat IPC: 0.329532 cumulative IPC: 0.329532 (Simulation time: 0 hr 5 min 2 sec) 
Heartbeat CPU 0 instructions: 120000000 cycles: 116603609 heartbeat IPC: 0.328835 cumulative IPC: 0.329183 (Simulation time: 0 hr 5 min 32 sec) 
Heartbeat CPU 0 instructions: 130000000 cycles: 147407099 heartbeat IPC: 0.324639 cumulative IPC: 0.327654 (Simulation time: 0 hr 6 min 1 sec) 
Heartbeat CPU 0 instructions: 140000001 cycles: 177865673 heartbeat IPC: 0.328315 cumulative IPC: 0.327819 (Simulation time: 0 hr 6 min 31 sec) 
Heartbeat CPU 0 instructions: 150000002 cycles: 208458898 heartbeat IPC: 0.32687 cumulative IPC: 0.327629 (Simulation time: 0 hr 7 min 1 sec) 
Heartbeat CPU 0 instructions: 160000000 cycles: 239328440 heartbeat IPC: 0.323944 cumulative IPC: 0.327009 (Simulation time: 0 hr 7 min 31 sec) 
Heartbeat CPU 0 instructions: 170000000 cycles: 269518054 heartbeat IPC: 0.33124 cumulative IPC: 0.327607 (Simulation time: 0 hr 8 min 0 sec) 
Heartbeat CPU 0 instructions: 180000000 cycles: 300000301 heartbeat IPC: 0.32806 cumulative IPC: 0.327663 (Simulation time: 0 hr 8 min 30 sec) 
Heartbeat CPU 0 instructions: 190000003 cycles: 330655146 heartbeat IPC: 0.326213 cumulative IPC: 0.327501 (Simulation time: 0 hr 8 min 59 sec) 
Heartbeat CPU 0 instructions: 200000000 cycles: 360965620 heartbeat IPC: 0.329919 cumulative IPC: 0.327742 (Simulation time: 0 hr 9 min 29 sec) 
Heartbeat CPU 0 instructions: 210000000 cycles: 391510854 heartbeat IPC: 0.327383 cumulative IPC: 0.327709 (Simulation time: 0 hr 9 min 59 sec) 
Heartbeat CPU 0 instructions: 220000000 cycles: 421925562 heartbeat IPC: 0.328788 cumulative IPC: 0.327799 (Simulation time: 0 hr 10 min 28 sec) 
Heartbeat CPU 0 instructions: 230000002 cycles: 452066525 heartbeat IPC: 0.331774 cumulative IPC: 0.328101 (Simulation time: 0 hr 10 min 58 sec) 
Heartbeat CPU 0 instructions: 240000001 cycles: 482587255 heartbeat IPC: 0.327646 cumulative IPC: 0.328069 (Simulation time: 0 hr 11 min 28 sec) 
Heartbeat CPU 0 instructions: 250000000 cycles: 513108497 heartbeat IPC: 0.327641 cumulative IPC: 0.32804 (Simulation time: 0 hr 11 min 57 sec) 
Heartbeat CPU 0 instructions: 260000000 cycles: 543665373 heartbeat IPC: 0.327259 cumulative IPC: 0.327991 (Simulation time: 0 hr 12 min 27 sec) 
Heartbeat CPU 0 instructions: 270000002 cycles: 574452238 heartbeat IPC: 0.324814 cumulative IPC: 0.327802 (Simulation time: 0 hr 12 min 57 sec) 
Heartbeat CPU 0 instructions: 280000001 cycles: 605071993 heartbeat IPC: 0.326587 cumulative IPC: 0.327735 (Simulation time: 0 hr 13 min 27 sec) 
Heartbeat CPU 0 instructions: 290000000 cycles: 635940724 heartbeat IPC: 0.323952 cumulative IPC: 0.327533 (Simulation time: 0 hr 13 min 57 sec) 
Heartbeat CPU 0 instructions: 300000000 cycles: 666552530 heartbeat IPC: 0.326671 cumulative IPC: 0.32749 (Simulation time: 0 hr 14 min 26 sec) 
Heartbeat CPU 0 instructions: 310000000 cycles: 696729871 heartbeat IPC: 0.331374 cumulative IPC: 0.327673 (Simulation time: 0 hr 14 min 56 sec) 
Heartbeat CPU 0 instructions: 320000002 cycles: 727324425 heartbeat IPC: 0.326856 cumulative IPC: 0.327636 (Simulation time: 0 hr 15 min 25 sec) 
Heartbeat CPU 0 instructions: 330000000 cycles: 757917991 heartbeat IPC: 0.326866 cumulative IPC: 0.327602 (Simulation time: 0 hr 15 min 55 sec) 
Heartbeat CPU 0 instructions: 340000001 cycles: 788754494 heartbeat IPC: 0.324291 cumulative IPC: 0.327463 (Simulation time: 0 hr 16 min 25 sec) 
Heartbeat CPU 0 instructions: 350000000 cycles: 819475524 heartbeat IPC: 0.32551 cumulative IPC: 0.327384 (Simulation time: 0 hr 16 min 55 sec) 
Heartbeat CPU 0 instructions: 360000003 cycles: 850118385 heartbeat IPC: 0.32634 cumulative IPC: 0.327344 (Simulation time: 0 hr 17 min 25 sec) 
Heartbeat CPU 0 instructions: 370000000 cycles: 880430044 heartbeat IPC: 0.329906 cumulative IPC: 0.327438 (Simulation time: 0 hr 17 min 54 sec) 
Heartbeat CPU 0 instructions: 380000001 cycles: 910940782 heartbeat IPC: 0.327753 cumulative IPC: 0.32745 (Simulation time: 0 hr 18 min 24 sec) 
Heartbeat CPU 0 instructions: 390000003 cycles: 941027591 heartbeat IPC: 0.332372 cumulative IPC: 0.327617 (Simulation time: 0 hr 18 min 53 sec) 
Heartbeat CPU 0 instructions: 400000000 cycles: 971828064 heartbeat IPC: 0.32467 cumulative IPC: 0.327518 (Simulation time: 0 hr 19 min 23 sec) 
Heartbeat CPU 0 instructions: 410000001 cycles: 1002461867 heartbeat IPC: 0.326437 cumulative IPC: 0.327483 (Simulation time: 0 hr 19 min 53 sec) 
Heartbeat CPU 0 instructions: 420000000 cycles: 1032869077 heartbeat IPC: 0.328869 cumulative IPC: 0.327526 (Simulation time: 0 hr 20 min 22 sec) 
Heartbeat CPU 0 instructions: 430000000 cycles: 1063626088 heartbeat IPC: 0.325129 cumulative IPC: 0.327453 (Simulation time: 0 hr 20 min 52 sec) 
Heartbeat CPU 0 instructions: 440000000 cycles: 1093806029 heartbeat IPC: 0.331346 cumulative IPC: 0.327566 (Simulation time: 0 hr 21 min 22 sec) 
Heartbeat CPU 0 instructions: 450000001 cycles: 1124435203 heartbeat IPC: 0.326486 cumulative IPC: 0.327535 (Simulation time: 0 hr 21 min 51 sec) 
Heartbeat CPU 0 instructions: 460000002 cycles: 1154266947 heartbeat IPC: 0.335213 cumulative IPC: 0.327744 (Simulation time: 0 hr 22 min 21 sec) 
Heartbeat CPU 0 instructions: 470000002 cycles: 1184646418 heartbeat IPC: 0.32917 cumulative IPC: 0.327782 (Simulation time: 0 hr 22 min 51 sec) 
Heartbeat CPU 0 instructions: 480000000 cycles: 1215038805 heartbeat IPC: 0.32903 cumulative IPC: 0.327815 (Simulation time: 0 hr 23 min 20 sec) 
Heartbeat CPU 0 instructions: 490000000 cycles: 1245355592 heartbeat IPC: 0.32985 cumulative IPC: 0.327867 (Simulation time: 0 hr 23 min 50 sec) 
Heartbeat CPU 0 instructions: 500000000 cycles: 1275474116 heartbeat IPC: 0.332022 cumulative IPC: 0.327969 (Simulation time: 0 hr 24 min 20 sec) 
Heartbeat CPU 0 instructions: 510000003 cycles: 1305787845 heartbeat IPC: 0.329884 cumulative IPC: 0.328016 (Simulation time: 0 hr 24 min 49 sec) 
Heartbeat CPU 0 instructions: 520000001 cycles: 1335939163 heartbeat IPC: 0.33166 cumulative IPC: 0.328101 (Simulation time: 0 hr 25 min 19 sec) 
Heartbeat CPU 0 instructions: 530000001 cycles: 1366506218 heartbeat IPC: 0.32715 cumulative IPC: 0.328079 (Simulation time: 0 hr 25 min 48 sec) 
Heartbeat CPU 0 instructions: 540000001 cycles: 1396330358 heartbeat IPC: 0.335299 cumulative IPC: 0.32824 (Simulation time: 0 hr 26 min 18 sec) 
Heartbeat CPU 0 instructions: 550000000 cycles: 1427047328 heartbeat IPC: 0.325553 cumulative IPC: 0.32818 (Simulation time: 0 hr 26 min 48 sec) 
Heartbeat CPU 0 instructions: 560000000 cycles: 1457774229 heartbeat IPC: 0.325448 cumulative IPC: 0.32812 (Simulation time: 0 hr 27 min 18 sec) 
Heartbeat CPU 0 instructions: 570000002 cycles: 1487946621 heartbeat IPC: 0.331429 cumulative IPC: 0.328189 (Simulation time: 0 hr 27 min 47 sec) 
Heartbeat CPU 0 instructions: 580000000 cycles: 1518061469 heartbeat IPC: 0.332062 cumulative IPC: 0.328269 (Simulation time: 0 hr 28 min 16 sec) 
Heartbeat CPU 0 instructions: 590000002 cycles: 1548800987 heartbeat IPC: 0.325314 cumulative IPC: 0.328208 (Simulation time: 0 hr 28 min 46 sec) 
Heartbeat CPU 0 instructions: 600000000 cycles: 1579188650 heartbeat IPC: 0.329081 cumulative IPC: 0.328226 (Simulation time: 0 hr 29 min 15 sec) 
Heartbeat CPU 0 instructions: 610000000 cycles: 1609625496 heartbeat IPC: 0.328549 cumulative IPC: 0.328232 (Simulation time: 0 hr 29 min 45 sec) 
Heartbeat CPU 0 instructions: 620000000 cycles: 1640738434 heartbeat IPC: 0.32141 cumulative IPC: 0.328098 (Simulation time: 0 hr 30 min 15 sec) 
Heartbeat CPU 0 instructions: 630000001 cycles: 1671171748 heartbeat IPC: 0.328587 cumulative IPC: 0.328107 (Simulation time: 0 hr 30 min 45 sec) 
Heartbeat CPU 0 instructions: 640000003 cycles: 1701600672 heartbeat IPC: 0.328635 cumulative IPC: 0.328117 (Simulation time: 0 hr 31 min 14 sec) 
Heartbeat CPU 0 instructions: 650000001 cycles: 1732276126 heartbeat IPC: 0.325993 cumulative IPC: 0.328078 (Simulation time: 0 hr 31 min 44 sec) 
Heartbeat CPU 0 instructions: 660000000 cycles: 1762544093 heartbeat IPC: 0.330382 cumulative IPC: 0.328119 (Simulation time: 0 hr 32 min 14 sec) 
Heartbeat CPU 0 instructions: 670000000 cycles: 1793060298 heartbeat IPC: 0.327695 cumulative IPC: 0.328112 (Simulation time: 0 hr 32 min 43 sec) 
Heartbeat CPU 0 instructions: 680000001 cycles: 1823401154 heartbeat IPC: 0.329589 cumulative IPC: 0.328137 (Simulation time: 0 hr 33 min 13 sec) 
Heartbeat CPU 0 instructions: 690000001 cycles: 1854152416 heartbeat IPC: 0.32519 cumulative IPC: 0.328087 (Simulation time: 0 hr 33 min 42 sec) 
Heartbeat CPU 0 instructions: 700000000 cycles: 1884475264 heartbeat IPC: 0.329784 cumulative IPC: 0.328115 (Simulation time: 0 hr 34 min 12 sec) 
Heartbeat CPU 0 instructions: 710000001 cycles: 1914758291 heartbeat IPC: 0.330218 cumulative IPC: 0.328149 (Simulation time: 0 hr 34 min 41 sec) 
Heartbeat CPU 0 instructions: 720000001 cycles: 1945315604 heartbeat IPC: 0.327254 cumulative IPC: 0.328135 (Simulation time: 0 hr 35 min 11 sec) 
Heartbeat CPU 0 instructions: 730000001 cycles: 1975925165 heartbeat IPC: 0.326695 cumulative IPC: 0.328112 (Simulation time: 0 hr 35 min 40 sec) 
Heartbeat CPU 0 instructions: 740000001 cycles: 2006655401 heartbeat IPC: 0.325412 cumulative IPC: 0.328069 (Simulation time: 0 hr 36 min 10 sec) 
Heartbeat CPU 0 instructions: 750000002 cycles: 2037476353 heartbeat IPC: 0.324455 cumulative IPC: 0.328013 (Simulation time: 0 hr 36 min 40 sec) 
Heartbeat CPU 0 instructions: 760000002 cycles: 2067779631 heartbeat IPC: 0.329997 cumulative IPC: 0.328043 (Simulation time: 0 hr 37 min 9 sec) 
Heartbeat CPU 0 instructions: 770000000 cycles: 2098947722 heartbeat IPC: 0.320841 cumulative IPC: 0.327933 (Simulation time: 0 hr 37 min 39 sec) 
Heartbeat CPU 0 instructions: 780000000 cycles: 2129670304 heartbeat IPC: 0.325493 cumulative IPC: 0.327897 (Simulation time: 0 hr 38 min 9 sec) 
Heartbeat CPU 0 instructions: 790000001 cycles: 2161386108 heartbeat IPC: 0.3153 cumulative IPC: 0.327707 (Simulation time: 0 hr 38 min 39 sec) 
Heartbeat CPU 0 instructions: 800000002 cycles: 2191911469 heartbeat IPC: 0.327596 cumulative IPC: 0.327706 (Simulation time: 0 hr 39 min 8 sec) 
Heartbeat CPU 0 instructions: 810000002 cycles: 2222846500 heartbeat IPC: 0.323258 cumulative IPC: 0.327642 (Simulation time: 0 hr 39 min 38 sec) 
Heartbeat CPU 0 instructions: 820000003 cycles: 2253372930 heartbeat IPC: 0.327585 cumulative IPC: 0.327641 (Simulation time: 0 hr 40 min 7 sec) 
Heartbeat CPU 0 instructions: 830000000 cycles: 2284679737 heartbeat IPC: 0.319419 cumulative IPC: 0.327526 (Simulation time: 0 hr 40 min 37 sec) 
Heartbeat CPU 0 instructions: 840000003 cycles: 2315778870 heartbeat IPC: 0.321552 cumulative IPC: 0.327444 (Simulation time: 0 hr 41 min 7 sec) 
Heartbeat CPU 0 instructions: 850000000 cycles: 2346771732 heartbeat IPC: 0.322655 cumulative IPC: 0.327379 (Simulation time: 0 hr 41 min 36 sec) 
Heartbeat CPU 0 instructions: 860000000 cycles: 2377842684 heartbeat IPC: 0.321844 cumulative IPC: 0.327305 (Simulation time: 0 hr 42 min 6 sec) 
Heartbeat CPU 0 instructions: 870000001 cycles: 2409268014 heartbeat IPC: 0.318215 cumulative IPC: 0.327183 (Simulation time: 0 hr 42 min 36 sec) 
Heartbeat CPU 0 instructions: 880000000 cycles: 2439729332 heartbeat IPC: 0.328285 cumulative IPC: 0.327197 (Simulation time: 0 hr 43 min 5 sec) 
Heartbeat CPU 0 instructions: 890000000 cycles: 2470524083 heartbeat IPC: 0.324731 cumulative IPC: 0.327166 (Simulation time: 0 hr 43 min 35 sec) 
Heartbeat CPU 0 instructions: 900000001 cycles: 2501086477 heartbeat IPC: 0.3272 cumulative IPC: 0.327166 (Simulation time: 0 hr 44 min 5 sec) 
Heartbeat CPU 0 instructions: 910000000 cycles: 2531863429 heartbeat IPC: 0.324918 cumulative IPC: 0.327138 (Simulation time: 0 hr 44 min 34 sec) 
Heartbeat CPU 0 instructions: 920000001 cycles: 2562663284 heartbeat IPC: 0.324677 cumulative IPC: 0.327108 (Simulation time: 0 hr 45 min 4 sec) 
Heartbeat CPU 0 instructions: 930000003 cycles: 2593387734 heartbeat IPC: 0.325474 cumulative IPC: 0.327088 (Simulation time: 0 hr 45 min 34 sec) 
Heartbeat CPU 0 instructions: 940000002 cycles: 2623669422 heartbeat IPC: 0.330233 cumulative IPC: 0.327125 (Simulation time: 0 hr 46 min 3 sec) 
Heartbeat CPU 0 instructions: 950000000 cycles: 2654335791 heartbeat IPC: 0.32609 cumulative IPC: 0.327113 (Simulation time: 0 hr 46 min 33 sec) 
Heartbeat CPU 0 instructions: 960000003 cycles: 2684768789 heartbeat IPC: 0.328591 cumulative IPC: 0.32713 (Simulation time: 0 hr 47 min 2 sec) 
Heartbeat CPU 0 instructions: 970000000 cycles: 2715330035 heartbeat IPC: 0.327212 cumulative IPC: 0.327131 (Simulation time: 0 hr 47 min 32 sec) 
Heartbeat CPU 0 instructions: 980000000 cycles: 2746281301 heartbeat IPC: 0.323089 cumulative IPC: 0.327085 (Simulation time: 0 hr 48 min 1 sec) 
Heartbeat CPU 0 instructions: 990000000 cycles: 2776554128 heartbeat IPC: 0.330329 cumulative IPC: 0.327121 (Simulation time: 0 hr 48 min 31 sec) 
Heartbeat CPU 0 instructions: 1000000000 cycles: 2806886111 heartbeat IPC: 0.329685 cumulative IPC: 0.327149 (Simulation time: 0 hr 49 min 1 sec) 
Heartbeat CPU 0 instructions: 1010000001 cycles: 2837390389 heartbeat IPC: 0.327823 cumulative IPC: 0.327157 (Simulation time: 0 hr 49 min 30 sec) 
Heartbeat CPU 0 instructions: 1020000001 cycles: 2868161765 heartbeat IPC: 0.324977 cumulative IPC: 0.327133 (Simulation time: 0 hr 50 min 0 sec) 
Heartbeat CPU 0 instructions: 1030000002 cycles: 2899637513 heartbeat IPC: 0.317705 cumulative IPC: 0.327028 (Simulation time: 0 hr 50 min 30 sec) 
Heartbeat CPU 0 instructions: 1040000000 cycles: 2930452384 heartbeat IPC: 0.324519 cumulative IPC: 0.327001 (Simulation time: 0 hr 50 min 59 sec) 
Heartbeat CPU 0 instructions: 1050000003 cycles: 2961187363 heartbeat IPC: 0.325362 cumulative IPC: 0.326984 (Simulation time: 0 hr 51 min 29 sec) 
Heartbeat CPU 0 instructions: 1060000002 cycles: 2992153832 heartbeat IPC: 0.32293 cumulative IPC: 0.326941 (Simulation time: 0 hr 51 min 58 sec) 
Heartbeat CPU 0 instructions: 1070000002 cycles: 3023499048 heartbeat IPC: 0.319028 cumulative IPC: 0.326858 (Simulation time: 0 hr 52 min 28 sec) 
Heartbeat CPU 0 instructions: 1080000000 cycles: 3054191295 heartbeat IPC: 0.325815 cumulative IPC: 0.326847 (Simulation time: 0 hr 52 min 58 sec) 
Heartbeat CPU 0 instructions: 1090000003 cycles: 3084699397 heartbeat IPC: 0.327782 cumulative IPC: 0.326856 (Simulation time: 0 hr 53 min 27 sec) 
Heartbeat CPU 0 instructions: 1100000000 cycles: 3115200779 heartbeat IPC: 0.327854 cumulative IPC: 0.326866 (Simulation time: 0 hr 53 min 57 sec) 
Finished CPU 0 instructions: 1000000002 cycles: 3059353620 cumulative IPC: 0.326866 (Simulation time: 0 hr 53 min 57 sec) 

ChampSim completed all CPUs

Region of Interest Statistics

CPU 0 cumulative IPC: 0.326866 instructions: 1000000002 cycles: 3059353620
L1D TOTAL     ACCESS:  422346176  HIT:  404007522  MISS:   18338654
L1D LOAD      ACCESS:  244129969  HIT:  228203420  MISS:   15926549
L1D RFO       ACCESS:  178216207  HIT:  175804102  MISS:    2412105
L1D PREFETCH  ACCESS:          0  HIT:          0  MISS:          0
L1D WRITEBACK ACCESS:          0  HIT:          0  MISS:          0
L1D PREFETCH  REQUESTED:          0  ISSUED:          0  USEFUL:          0  USELESS:          0
L1D AVERAGE MISS LATENCY: 134.945 cycles
L1I TOTAL     ACCESS:  178535622  HIT:  178148709  MISS:     386913
L1I LOAD      ACCESS:  178535622  HIT:  178148709  MISS:     386913
L1I RFO       ACCESS:          0  HIT:          0  MISS:          0
L1I PREFETCH  ACCESS:          0  HIT:          0  MISS:          0
L1I WRITEBACK ACCESS:          0  HIT:          0  MISS:          0
L1I PREFETCH  REQUESTED:          0  ISSUED:          0  USEFUL:          0  USELESS:          0
L1I AVERAGE MISS LATENCY: 32.479 cycles
L2C TOTAL     ACCESS:   27790079  HIT:   13307027  MISS:   14483052
L2C LOAD      ACCESS:   16313225  HIT:    3875887  MISS:   12437338
L2C RFO       ACCESS:    2412084  HIT:     409933  MISS:    2002151
L2C PREFETCH  ACCESS:          0  HIT:          0  MISS:          0
L2C WRITEBACK ACCESS:    9064770  HIT:    9021207  MISS:      43563
L2C PREFETCH  REQUESTED:          0  ISSUED:          0  USEFUL:          0  USELESS:          0
L2C AVERAGE MISS LATENCY: 145.955 cycles
LLC TOTAL     ACCESS:   21687184  HIT:    8791995  MISS:   12895189
LLC LOAD      ACCESS:   12437312  HIT:    3616022  MISS:    8821290
LLC RFO       ACCESS:    2002149  HIT:     971833  MISS:    1030316
LLC PREFETCH  ACCESS:          0  HIT:          0  MISS:          0
LLC WRITEBACK ACCESS:    7247723  HIT:    4204140  MISS:    3043583
LLC PREFETCH  REQUESTED:          0  ISSUED:          0  USEFUL:          0  USELESS:          0
LLC AVERAGE MISS LATENCY: 126.835 cycles
Major fault: 0 Minor fault: 51779
==============================
Perceptron RRIP Stats:
   Num Updates: 15843560
   Num Trains:  1864782
==============================
perceptron #0: -2 -4 -2 -2 0 0 0 0 -4 -8 -2 0 2 -2 2 4 -2 6 4 0 2 0 -4 4 0 -2 -14 


DRAM Statistics
 CHANNEL 0
 RQ ROW_BUFFER_HIT:     891829  ROW_BUFFER_MISS:    8959761
 DBUS_CONGESTED:    2446359
 WQ ROW_BUFFER_HIT:     791015  ROW_BUFFER_MISS:    3364110  FULL:          0

 AVG_CONGESTED_CYCLE: 6

CPU 0 Branch Prediction Accuracy: 95.7698% MPKI: 8.79501 Average ROB Occupancy at Mispredict: 78.0563

Branch types
NOT_BRANCH: 792090406 79.209%
BRANCH_DIRECT_JUMP: 11386471 1.13865%
BRANCH_INDIRECT: 3364042 0.336404%
BRANCH_CONDITIONAL: 133667621 13.3668%
BRANCH_DIRECT_CALL: 17787880 1.77879%
BRANCH_INDIRECT_CALL: 11957676 1.19577%
BRANCH_RETURN: 29745554 2.97456%
BRANCH_OTHER: 0 0%

