
*** ChampSim Multicore Out-of-Order Simulator ***

Warmup Instructions: 100000000
Simulation Instructions: 1000000000
Number of CPUs: 1
LLC sets: 2048
LLC ways: 16
Off-chip DRAM Size: 4096 MB Channels: 1 Width: 64-bit Data Rate: 3200 MT/s

CPU 0 runs /scratch/user/kevin.weston/dpc3-traces/621.champsimtrace.xz
CPU 0 Bimodal branch predictor
Initialize RRPV
Initialize PRRIP state
Heartbeat CPU 0 instructions: 10000000 cycles: 4328691 heartbeat IPC: 2.31017 cumulative IPC: 2.31017 (Simulation time: 0 hr 0 min 20 sec) 
Heartbeat CPU 0 instructions: 20000002 cycles: 8673358 heartbeat IPC: 2.30167 cumulative IPC: 2.30591 (Simulation time: 0 hr 0 min 40 sec) 
Heartbeat CPU 0 instructions: 30000000 cycles: 13029411 heartbeat IPC: 2.29566 cumulative IPC: 2.30248 (Simulation time: 0 hr 1 min 0 sec) 
Heartbeat CPU 0 instructions: 40000002 cycles: 17381284 heartbeat IPC: 2.29786 cumulative IPC: 2.30133 (Simulation time: 0 hr 1 min 20 sec) 
Heartbeat CPU 0 instructions: 50000002 cycles: 21731017 heartbeat IPC: 2.29899 cumulative IPC: 2.30086 (Simulation time: 0 hr 1 min 40 sec) 
Heartbeat CPU 0 instructions: 60000003 cycles: 26077264 heartbeat IPC: 2.30084 cumulative IPC: 2.30085 (Simulation time: 0 hr 2 min 0 sec) 
Heartbeat CPU 0 instructions: 70000000 cycles: 30419723 heartbeat IPC: 2.30284 cumulative IPC: 2.30114 (Simulation time: 0 hr 2 min 20 sec) 
Heartbeat CPU 0 instructions: 80000000 cycles: 34749505 heartbeat IPC: 2.30959 cumulative IPC: 2.30219 (Simulation time: 0 hr 2 min 40 sec) 
Heartbeat CPU 0 instructions: 90000000 cycles: 39094644 heartbeat IPC: 2.30142 cumulative IPC: 2.30211 (Simulation time: 0 hr 3 min 0 sec) 
Heartbeat CPU 0 instructions: 100000001 cycles: 43429618 heartbeat IPC: 2.30682 cumulative IPC: 2.30258 (Simulation time: 0 hr 3 min 20 sec) 

Warmup complete CPU 0 instructions: 100000001 cycles: 43429618 (Simulation time: 0 hr 3 min 20 sec) 

Heartbeat CPU 0 instructions: 110000000 cycles: 52552832 heartbeat IPC: 1.0961 cumulative IPC: 1.0961 (Simulation time: 0 hr 3 min 38 sec) 
Heartbeat CPU 0 instructions: 120000001 cycles: 61601460 heartbeat IPC: 1.10514 cumulative IPC: 1.1006 (Simulation time: 0 hr 3 min 54 sec) 
Heartbeat CPU 0 instructions: 130000000 cycles: 70696526 heartbeat IPC: 1.0995 cumulative IPC: 1.10023 (Simulation time: 0 hr 4 min 11 sec) 
Heartbeat CPU 0 instructions: 140000001 cycles: 79768036 heartbeat IPC: 1.10235 cumulative IPC: 1.10076 (Simulation time: 0 hr 4 min 28 sec) 
Heartbeat CPU 0 instructions: 150000000 cycles: 88709205 heartbeat IPC: 1.11842 cumulative IPC: 1.10425 (Simulation time: 0 hr 4 min 45 sec) 
Heartbeat CPU 0 instructions: 160000002 cycles: 97680617 heartbeat IPC: 1.11465 cumulative IPC: 1.10597 (Simulation time: 0 hr 5 min 1 sec) 
Heartbeat CPU 0 instructions: 170000001 cycles: 106621289 heartbeat IPC: 1.11848 cumulative IPC: 1.10774 (Simulation time: 0 hr 5 min 18 sec) 
Heartbeat CPU 0 instructions: 180000000 cycles: 115585640 heartbeat IPC: 1.11553 cumulative IPC: 1.10871 (Simulation time: 0 hr 5 min 35 sec) 
Heartbeat CPU 0 instructions: 190000003 cycles: 124592199 heartbeat IPC: 1.1103 cumulative IPC: 1.10889 (Simulation time: 0 hr 5 min 51 sec) 
Heartbeat CPU 0 instructions: 200000000 cycles: 133580269 heartbeat IPC: 1.11259 cumulative IPC: 1.10925 (Simulation time: 0 hr 6 min 8 sec) 
Heartbeat CPU 0 instructions: 210000001 cycles: 142463893 heartbeat IPC: 1.12567 cumulative IPC: 1.11073 (Simulation time: 0 hr 6 min 24 sec) 
Heartbeat CPU 0 instructions: 220000000 cycles: 151303902 heartbeat IPC: 1.13122 cumulative IPC: 1.11241 (Simulation time: 0 hr 6 min 40 sec) 
Heartbeat CPU 0 instructions: 230000001 cycles: 160196969 heartbeat IPC: 1.12447 cumulative IPC: 1.11332 (Simulation time: 0 hr 6 min 57 sec) 
Heartbeat CPU 0 instructions: 240000001 cycles: 169148676 heartbeat IPC: 1.11711 cumulative IPC: 1.11359 (Simulation time: 0 hr 7 min 13 sec) 
Heartbeat CPU 0 instructions: 250000001 cycles: 178125040 heartbeat IPC: 1.11404 cumulative IPC: 1.11362 (Simulation time: 0 hr 7 min 30 sec) 
Heartbeat CPU 0 instructions: 260000000 cycles: 187096641 heartbeat IPC: 1.11463 cumulative IPC: 1.11369 (Simulation time: 0 hr 7 min 46 sec) 
Heartbeat CPU 0 instructions: 270000002 cycles: 196068970 heartbeat IPC: 1.11454 cumulative IPC: 1.11374 (Simulation time: 0 hr 8 min 3 sec) 
Heartbeat CPU 0 instructions: 280000002 cycles: 205009422 heartbeat IPC: 1.11851 cumulative IPC: 1.114 (Simulation time: 0 hr 8 min 19 sec) 
Heartbeat CPU 0 instructions: 290000002 cycles: 213996865 heartbeat IPC: 1.11266 cumulative IPC: 1.11393 (Simulation time: 0 hr 8 min 36 sec) 
Heartbeat CPU 0 instructions: 300000002 cycles: 222952069 heartbeat IPC: 1.11667 cumulative IPC: 1.11407 (Simulation time: 0 hr 8 min 52 sec) 
Heartbeat CPU 0 instructions: 310000002 cycles: 231843245 heartbeat IPC: 1.12471 cumulative IPC: 1.11457 (Simulation time: 0 hr 9 min 9 sec) 
Heartbeat CPU 0 instructions: 320000000 cycles: 240872413 heartbeat IPC: 1.10752 cumulative IPC: 1.11425 (Simulation time: 0 hr 9 min 25 sec) 
Heartbeat CPU 0 instructions: 330000000 cycles: 249853551 heartbeat IPC: 1.11344 cumulative IPC: 1.11421 (Simulation time: 0 hr 9 min 42 sec) 
Heartbeat CPU 0 instructions: 340000000 cycles: 259200599 heartbeat IPC: 1.06986 cumulative IPC: 1.11229 (Simulation time: 0 hr 10 min 3 sec) 
Heartbeat CPU 0 instructions: 350000000 cycles: 268547578 heartbeat IPC: 1.06986 cumulative IPC: 1.11053 (Simulation time: 0 hr 10 min 23 sec) 
Heartbeat CPU 0 instructions: 360000001 cycles: 277803774 heartbeat IPC: 1.08036 cumulative IPC: 1.10934 (Simulation time: 0 hr 10 min 42 sec) 
Heartbeat CPU 0 instructions: 370000001 cycles: 286997993 heartbeat IPC: 1.08764 cumulative IPC: 1.10852 (Simulation time: 0 hr 11 min 2 sec) 
Heartbeat CPU 0 instructions: 380000003 cycles: 296170838 heartbeat IPC: 1.09017 cumulative IPC: 1.10785 (Simulation time: 0 hr 11 min 21 sec) 
Heartbeat CPU 0 instructions: 390000000 cycles: 306662122 heartbeat IPC: 0.953172 cumulative IPC: 1.10169 (Simulation time: 0 hr 11 min 43 sec) 
Heartbeat CPU 0 instructions: 400000002 cycles: 314421928 heartbeat IPC: 1.28869 cumulative IPC: 1.10704 (Simulation time: 0 hr 12 min 2 sec) 
Heartbeat CPU 0 instructions: 410000001 cycles: 322260466 heartbeat IPC: 1.27575 cumulative IPC: 1.11179 (Simulation time: 0 hr 12 min 20 sec) 
Heartbeat CPU 0 instructions: 420000003 cycles: 330114220 heartbeat IPC: 1.27328 cumulative IPC: 1.11621 (Simulation time: 0 hr 12 min 38 sec) 
Heartbeat CPU 0 instructions: 430000002 cycles: 338033886 heartbeat IPC: 1.26268 cumulative IPC: 1.12015 (Simulation time: 0 hr 12 min 57 sec) 
Heartbeat CPU 0 instructions: 440000000 cycles: 345933951 heartbeat IPC: 1.26581 cumulative IPC: 1.12395 (Simulation time: 0 hr 13 min 15 sec) 
Heartbeat CPU 0 instructions: 450000000 cycles: 353898621 heartbeat IPC: 1.25554 cumulative IPC: 1.12733 (Simulation time: 0 hr 13 min 33 sec) 
Heartbeat CPU 0 instructions: 460000000 cycles: 361737886 heartbeat IPC: 1.27563 cumulative IPC: 1.13098 (Simulation time: 0 hr 13 min 51 sec) 
Heartbeat CPU 0 instructions: 470000000 cycles: 369446268 heartbeat IPC: 1.29729 cumulative IPC: 1.13491 (Simulation time: 0 hr 14 min 9 sec) 
Heartbeat CPU 0 instructions: 480000000 cycles: 377346503 heartbeat IPC: 1.26579 cumulative IPC: 1.13801 (Simulation time: 0 hr 14 min 28 sec) 
Heartbeat CPU 0 instructions: 490000000 cycles: 387130484 heartbeat IPC: 1.02208 cumulative IPC: 1.13471 (Simulation time: 0 hr 14 min 49 sec) 
Heartbeat CPU 0 instructions: 500000001 cycles: 397870845 heartbeat IPC: 0.931067 cumulative IPC: 1.12854 (Simulation time: 0 hr 15 min 15 sec) 
Heartbeat CPU 0 instructions: 510000001 cycles: 408561672 heartbeat IPC: 0.935381 cumulative IPC: 1.12288 (Simulation time: 0 hr 15 min 41 sec) 
Heartbeat CPU 0 instructions: 520000000 cycles: 419190503 heartbeat IPC: 0.940837 cumulative IPC: 1.11773 (Simulation time: 0 hr 16 min 7 sec) 
Heartbeat CPU 0 instructions: 530000002 cycles: 429766689 heartbeat IPC: 0.945521 cumulative IPC: 1.11302 (Simulation time: 0 hr 16 min 32 sec) 
Heartbeat CPU 0 instructions: 540000001 cycles: 440269378 heartbeat IPC: 0.952137 cumulative IPC: 1.10876 (Simulation time: 0 hr 16 min 58 sec) 
Heartbeat CPU 0 instructions: 550000000 cycles: 450786374 heartbeat IPC: 0.950842 cumulative IPC: 1.10468 (Simulation time: 0 hr 17 min 23 sec) 
Heartbeat CPU 0 instructions: 560000000 cycles: 461360323 heartbeat IPC: 0.94572 cumulative IPC: 1.10066 (Simulation time: 0 hr 17 min 49 sec) 
Heartbeat CPU 0 instructions: 570000003 cycles: 471942592 heartbeat IPC: 0.944977 cumulative IPC: 1.09682 (Simulation time: 0 hr 18 min 14 sec) 
Heartbeat CPU 0 instructions: 580000000 cycles: 482511676 heartbeat IPC: 0.946155 cumulative IPC: 1.09319 (Simulation time: 0 hr 18 min 40 sec) 
Heartbeat CPU 0 instructions: 590000000 cycles: 493006484 heartbeat IPC: 0.952852 cumulative IPC: 1.08991 (Simulation time: 0 hr 19 min 6 sec) 
Heartbeat CPU 0 instructions: 600000001 cycles: 503427820 heartbeat IPC: 0.95957 cumulative IPC: 1.08696 (Simulation time: 0 hr 19 min 31 sec) 
Heartbeat CPU 0 instructions: 610000000 cycles: 513976373 heartbeat IPC: 0.947997 cumulative IPC: 1.08385 (Simulation time: 0 hr 19 min 57 sec) 
Heartbeat CPU 0 instructions: 620000003 cycles: 529155949 heartbeat IPC: 0.65878 cumulative IPC: 1.07056 (Simulation time: 0 hr 20 min 22 sec) 
Heartbeat CPU 0 instructions: 630000003 cycles: 545177866 heartbeat IPC: 0.624145 cumulative IPC: 1.05631 (Simulation time: 0 hr 20 min 47 sec) 
Heartbeat CPU 0 instructions: 640000001 cycles: 558981383 heartbeat IPC: 0.724453 cumulative IPC: 1.04742 (Simulation time: 0 hr 21 min 12 sec) 
Heartbeat CPU 0 instructions: 650000001 cycles: 574629076 heartbeat IPC: 0.639072 cumulative IPC: 1.03539 (Simulation time: 0 hr 21 min 39 sec) 
Heartbeat CPU 0 instructions: 660000000 cycles: 588222895 heartbeat IPC: 0.735628 cumulative IPC: 1.02791 (Simulation time: 0 hr 22 min 7 sec) 
Heartbeat CPU 0 instructions: 670000003 cycles: 599944652 heartbeat IPC: 0.853115 cumulative IPC: 1.02423 (Simulation time: 0 hr 22 min 34 sec) 
Heartbeat CPU 0 instructions: 680000003 cycles: 621079773 heartbeat IPC: 0.473146 cumulative IPC: 1.00407 (Simulation time: 0 hr 23 min 7 sec) 
Heartbeat CPU 0 instructions: 690000000 cycles: 631074367 heartbeat IPC: 1.00054 cumulative IPC: 1.00401 (Simulation time: 0 hr 23 min 32 sec) 
Heartbeat CPU 0 instructions: 700000000 cycles: 640492472 heartbeat IPC: 1.06178 cumulative IPC: 1.00492 (Simulation time: 0 hr 23 min 57 sec) 
Heartbeat CPU 0 instructions: 710000002 cycles: 649952532 heartbeat IPC: 1.05708 cumulative IPC: 1.00573 (Simulation time: 0 hr 24 min 21 sec) 
Heartbeat CPU 0 instructions: 720000000 cycles: 659186283 heartbeat IPC: 1.08298 cumulative IPC: 1.00689 (Simulation time: 0 hr 24 min 45 sec) 
Heartbeat CPU 0 instructions: 730000003 cycles: 668614267 heartbeat IPC: 1.06067 cumulative IPC: 1.0077 (Simulation time: 0 hr 25 min 10 sec) 
Heartbeat CPU 0 instructions: 740000000 cycles: 681903164 heartbeat IPC: 0.752508 cumulative IPC: 1.00239 (Simulation time: 0 hr 25 min 37 sec) 
Heartbeat CPU 0 instructions: 750000003 cycles: 701187497 heartbeat IPC: 0.518556 cumulative IPC: 0.988206 (Simulation time: 0 hr 26 min 10 sec) 
Heartbeat CPU 0 instructions: 760000001 cycles: 716982380 heartbeat IPC: 0.633116 cumulative IPC: 0.979879 (Simulation time: 0 hr 26 min 41 sec) 
Heartbeat CPU 0 instructions: 770000000 cycles: 737673159 heartbeat IPC: 0.483307 cumulative IPC: 0.965079 (Simulation time: 0 hr 27 min 12 sec) 
Heartbeat CPU 0 instructions: 780000003 cycles: 751901937 heartbeat IPC: 0.702801 cumulative IPC: 0.959812 (Simulation time: 0 hr 27 min 41 sec) 
Heartbeat CPU 0 instructions: 790000003 cycles: 764922691 heartbeat IPC: 0.768005 cumulative IPC: 0.95635 (Simulation time: 0 hr 28 min 9 sec) 
Heartbeat CPU 0 instructions: 800000003 cycles: 780558349 heartbeat IPC: 0.639564 cumulative IPC: 0.949631 (Simulation time: 0 hr 28 min 36 sec) 
Heartbeat CPU 0 instructions: 810000000 cycles: 801775148 heartbeat IPC: 0.471325 cumulative IPC: 0.936249 (Simulation time: 0 hr 29 min 9 sec) 
Heartbeat CPU 0 instructions: 820000001 cycles: 830776393 heartbeat IPC: 0.344813 cumulative IPC: 0.914464 (Simulation time: 0 hr 29 min 47 sec) 
Heartbeat CPU 0 instructions: 830000003 cycles: 846407751 heartbeat IPC: 0.63974 cumulative IPC: 0.909116 (Simulation time: 0 hr 30 min 13 sec) 
Heartbeat CPU 0 instructions: 840000001 cycles: 863999231 heartbeat IPC: 0.568457 cumulative IPC: 0.901813 (Simulation time: 0 hr 30 min 43 sec) 
Heartbeat CPU 0 instructions: 850000003 cycles: 890322120 heartbeat IPC: 0.379898 cumulative IPC: 0.885591 (Simulation time: 0 hr 31 min 20 sec) 
Heartbeat CPU 0 instructions: 860000003 cycles: 906433095 heartbeat IPC: 0.620695 cumulative IPC: 0.880645 (Simulation time: 0 hr 31 min 50 sec) 
Heartbeat CPU 0 instructions: 870000003 cycles: 916601031 heartbeat IPC: 0.983484 cumulative IPC: 0.881843 (Simulation time: 0 hr 32 min 15 sec) 
Heartbeat CPU 0 instructions: 880000000 cycles: 928993683 heartbeat IPC: 0.80693 cumulative IPC: 0.880795 (Simulation time: 0 hr 32 min 41 sec) 
Heartbeat CPU 0 instructions: 890000002 cycles: 938452785 heartbeat IPC: 1.05718 cumulative IPC: 0.882659 (Simulation time: 0 hr 33 min 4 sec) 
Heartbeat CPU 0 instructions: 900000002 cycles: 950306342 heartbeat IPC: 0.843629 cumulative IPC: 0.882149 (Simulation time: 0 hr 33 min 30 sec) 
Heartbeat CPU 0 instructions: 910000002 cycles: 959249115 heartbeat IPC: 1.11822 cumulative IPC: 0.884454 (Simulation time: 0 hr 33 min 54 sec) 
Heartbeat CPU 0 instructions: 920000002 cycles: 971364995 heartbeat IPC: 0.825363 cumulative IPC: 0.883682 (Simulation time: 0 hr 34 min 20 sec) 
Heartbeat CPU 0 instructions: 930000003 cycles: 979895842 heartbeat IPC: 1.17222 cumulative IPC: 0.886311 (Simulation time: 0 hr 34 min 43 sec) 
Heartbeat CPU 0 instructions: 940000003 cycles: 992148762 heartbeat IPC: 0.816132 cumulative IPC: 0.885404 (Simulation time: 0 hr 35 min 9 sec) 
Heartbeat CPU 0 instructions: 950000001 cycles: 1000634628 heartbeat IPC: 1.17843 cumulative IPC: 0.888002 (Simulation time: 0 hr 35 min 32 sec) 
Heartbeat CPU 0 instructions: 960000001 cycles: 1013856166 heartbeat IPC: 0.756342 cumulative IPC: 0.886208 (Simulation time: 0 hr 35 min 59 sec) 
Heartbeat CPU 0 instructions: 970000000 cycles: 1021906020 heartbeat IPC: 1.24226 cumulative IPC: 0.889137 (Simulation time: 0 hr 36 min 22 sec) 
Heartbeat CPU 0 instructions: 980000003 cycles: 1029971610 heartbeat IPC: 1.23984 cumulative IPC: 0.892005 (Simulation time: 0 hr 36 min 44 sec) 
Heartbeat CPU 0 instructions: 990000000 cycles: 1038047282 heartbeat IPC: 1.23829 cumulative IPC: 0.894816 (Simulation time: 0 hr 37 min 6 sec) 
Heartbeat CPU 0 instructions: 1000000000 cycles: 1052240512 heartbeat IPC: 0.704561 cumulative IPC: 0.892139 (Simulation time: 0 hr 37 min 31 sec) 
Heartbeat CPU 0 instructions: 1010000002 cycles: 1073624295 heartbeat IPC: 0.467644 cumulative IPC: 0.883328 (Simulation time: 0 hr 38 min 2 sec) 
Heartbeat CPU 0 instructions: 1020000002 cycles: 1082291995 heartbeat IPC: 1.15371 cumulative IPC: 0.885584 (Simulation time: 0 hr 38 min 26 sec) 
Heartbeat CPU 0 instructions: 1030000000 cycles: 1092356506 heartbeat IPC: 0.99359 cumulative IPC: 0.88662 (Simulation time: 0 hr 38 min 52 sec) 
Heartbeat CPU 0 instructions: 1040000001 cycles: 1102163784 heartbeat IPC: 1.01965 cumulative IPC: 0.887853 (Simulation time: 0 hr 39 min 16 sec) 
Heartbeat CPU 0 instructions: 1050000001 cycles: 1110833865 heartbeat IPC: 1.15339 cumulative IPC: 0.89001 (Simulation time: 0 hr 39 min 40 sec) 
Heartbeat CPU 0 instructions: 1060000001 cycles: 1120638273 heartbeat IPC: 1.01995 cumulative IPC: 0.891192 (Simulation time: 0 hr 40 min 5 sec) 
Heartbeat CPU 0 instructions: 1070000003 cycles: 1130333643 heartbeat IPC: 1.03142 cumulative IPC: 0.892443 (Simulation time: 0 hr 40 min 29 sec) 
Heartbeat CPU 0 instructions: 1080000002 cycles: 1147379764 heartbeat IPC: 0.586644 cumulative IPC: 0.887721 (Simulation time: 0 hr 41 min 0 sec) 
Heartbeat CPU 0 instructions: 1090000002 cycles: 1166464767 heartbeat IPC: 0.523972 cumulative IPC: 0.88154 (Simulation time: 0 hr 41 min 33 sec) 
Heartbeat CPU 0 instructions: 1100000000 cycles: 1182861212 heartbeat IPC: 0.609888 cumulative IPC: 0.877631 (Simulation time: 0 hr 42 min 3 sec) 
Finished CPU 0 instructions: 1000000000 cycles: 1139431649 cumulative IPC: 0.877631 (Simulation time: 0 hr 42 min 3 sec) 

ChampSim completed all CPUs

Region of Interest Statistics

CPU 0 cumulative IPC: 0.877631 instructions: 1000000000 cycles: 1139431649
L1D TOTAL     ACCESS:  238821421  HIT:  226485196  MISS:   12336225
L1D LOAD      ACCESS:  179078301  HIT:  170084668  MISS:    8993633
L1D RFO       ACCESS:   59743120  HIT:   56400528  MISS:    3342592
L1D PREFETCH  ACCESS:          0  HIT:          0  MISS:          0
L1D WRITEBACK ACCESS:          0  HIT:          0  MISS:          0
L1D PREFETCH  REQUESTED:          0  ISSUED:          0  USEFUL:          0  USELESS:          0
L1D AVERAGE MISS LATENCY: 142.514 cycles
L1I TOTAL     ACCESS:  172785490  HIT:  172082748  MISS:     702742
L1I LOAD      ACCESS:  172785490  HIT:  172082748  MISS:     702742
L1I RFO       ACCESS:          0  HIT:          0  MISS:          0
L1I PREFETCH  ACCESS:          0  HIT:          0  MISS:          0
L1I WRITEBACK ACCESS:          0  HIT:          0  MISS:          0
L1I PREFETCH  REQUESTED:          0  ISSUED:          0  USEFUL:          0  USELESS:          0
L1I AVERAGE MISS LATENCY: 23.7426 cycles
L2C TOTAL     ACCESS:   18364099  HIT:   11010407  MISS:    7353692
L2C LOAD      ACCESS:    9696015  HIT:    4059357  MISS:    5636658
L2C RFO       ACCESS:    3341855  HIT:    1630980  MISS:    1710875
L2C PREFETCH  ACCESS:          0  HIT:          0  MISS:          0
L2C WRITEBACK ACCESS:    5326229  HIT:    5320070  MISS:       6159
L2C PREFETCH  REQUESTED:          0  ISSUED:          0  USEFUL:          0  USELESS:          0
L2C AVERAGE MISS LATENCY: 213.712 cycles
LLC TOTAL     ACCESS:   10667221  HIT:    3290367  MISS:    7376854
LLC LOAD      ACCESS:    5636656  HIT:    1314457  MISS:    4322199
LLC RFO       ACCESS:    1710860  HIT:     515973  MISS:    1194887
LLC PREFETCH  ACCESS:          0  HIT:          0  MISS:          0
LLC WRITEBACK ACCESS:    3319705  HIT:    1459937  MISS:    1859768
LLC PREFETCH  REQUESTED:          0  ISSUED:          0  USEFUL:          0  USELESS:          0
LLC AVERAGE MISS LATENCY: 182.546 cycles
Major fault: 0 Minor fault: 19417
==============================
Perceptron RRIP Stats:
   Num Updates: 7318143
   Num Trains:  150621
==============================
perceptron #0: -1 -7 -7 1 -1 5 3 -3 7 1 7 -3 -5 -1 -3 1 5 -1 1 11 5 3 5 11 11 11 -11 

perceptron #1: 5 -5 -5 -5 -3 -1 -1 -5 1 5 7 -1 -9 1 1 1 3 1 -3 5 1 1 3 11 11 -11 -11 

perceptron #2: 3 -5 -1 3 7 -5 -3 -3 1 5 7 -3 -9 1 1 7 -3 -3 -1 5 -1 -1 1 11 -11 11 -11 

perceptron #3: 2 -6 4 -6 0 -2 0 2 -6 4 2 0 -8 -2 -2 10 0 0 4 0 4 2 0 14 -14 -14 -14 

perceptron #4: -2 -14 -2 2 8 -4 2 -4 4 2 8 2 -8 0 2 2 2 -4 -2 8 -4 -4 2 -14 14 14 -14 

perceptron #5: -2 -8 0 0 0 -2 2 -4 2 4 4 0 -10 6 0 4 0 0 -6 6 0 -2 2 -12 12 -12 -12 

perceptron #6: -1 -7 -5 -1 1 1 7 -5 3 3 5 -1 -11 3 5 -1 -1 -1 1 7 5 1 1 -11 -11 11 -11 

perceptron #7: 3 -1 -3 5 -1 7 1 -9 3 5 9 -1 -5 1 1 1 1 -3 -3 5 -1 3 -1 -11 -11 -11 -11 


DRAM Statistics
 CHANNEL 0
 RQ ROW_BUFFER_HIT:    1008619  ROW_BUFFER_MISS:    4508123
 DBUS_CONGESTED:    2624002
 WQ ROW_BUFFER_HIT:     864647  ROW_BUFFER_MISS:    1335107  FULL:     136071

 AVG_CONGESTED_CYCLE: 6

CPU 0 Branch Prediction Accuracy: 97.1042% MPKI: 2.81547 Average ROB Occupancy at Mispredict: 112.422

Branch types
NOT_BRANCH: 902775037 90.2775%
BRANCH_DIRECT_JUMP: 4806588 0.480659%
BRANCH_INDIRECT: 59 5.9e-06%
BRANCH_CONDITIONAL: 81914089 8.19141%
BRANCH_DIRECT_CALL: 5252089 0.525209%
BRANCH_INDIRECT_CALL: 0 0%
BRANCH_RETURN: 5252094 0.525209%
BRANCH_OTHER: 0 0%

