
*** ChampSim Multicore Out-of-Order Simulator ***

Warmup Instructions: 100000000
Simulation Instructions: 1000000000
Number of CPUs: 1
LLC sets: 2048
LLC ways: 16
Off-chip DRAM Size: 4096 MB Channels: 1 Width: 64-bit Data Rate: 3200 MT/s

CPU 0 runs /scratch/user/kevin.weston/dpc3-traces/621.champsimtrace.xz
CPU 0 Bimodal branch predictor
Initialize RRPV
Initialize PRRIP state
Heartbeat CPU 0 instructions: 10000000 cycles: 4328691 heartbeat IPC: 2.31017 cumulative IPC: 2.31017 (Simulation time: 0 hr 0 min 21 sec) 
Heartbeat CPU 0 instructions: 20000002 cycles: 8673358 heartbeat IPC: 2.30167 cumulative IPC: 2.30591 (Simulation time: 0 hr 0 min 42 sec) 
Heartbeat CPU 0 instructions: 30000000 cycles: 13029411 heartbeat IPC: 2.29566 cumulative IPC: 2.30248 (Simulation time: 0 hr 1 min 3 sec) 
Heartbeat CPU 0 instructions: 40000002 cycles: 17381284 heartbeat IPC: 2.29786 cumulative IPC: 2.30133 (Simulation time: 0 hr 1 min 24 sec) 
Heartbeat CPU 0 instructions: 50000002 cycles: 21731017 heartbeat IPC: 2.29899 cumulative IPC: 2.30086 (Simulation time: 0 hr 1 min 45 sec) 
Heartbeat CPU 0 instructions: 60000003 cycles: 26077264 heartbeat IPC: 2.30084 cumulative IPC: 2.30085 (Simulation time: 0 hr 2 min 6 sec) 
Heartbeat CPU 0 instructions: 70000000 cycles: 30419723 heartbeat IPC: 2.30284 cumulative IPC: 2.30114 (Simulation time: 0 hr 2 min 27 sec) 
Heartbeat CPU 0 instructions: 80000000 cycles: 34749505 heartbeat IPC: 2.30959 cumulative IPC: 2.30219 (Simulation time: 0 hr 2 min 48 sec) 
Heartbeat CPU 0 instructions: 90000000 cycles: 39094644 heartbeat IPC: 2.30142 cumulative IPC: 2.30211 (Simulation time: 0 hr 3 min 9 sec) 
Heartbeat CPU 0 instructions: 100000001 cycles: 43429618 heartbeat IPC: 2.30682 cumulative IPC: 2.30258 (Simulation time: 0 hr 3 min 30 sec) 

Warmup complete CPU 0 instructions: 100000001 cycles: 43429618 (Simulation time: 0 hr 3 min 30 sec) 

Heartbeat CPU 0 instructions: 110000000 cycles: 52552832 heartbeat IPC: 1.0961 cumulative IPC: 1.0961 (Simulation time: 0 hr 3 min 48 sec) 
Heartbeat CPU 0 instructions: 120000001 cycles: 61601460 heartbeat IPC: 1.10514 cumulative IPC: 1.1006 (Simulation time: 0 hr 4 min 5 sec) 
Heartbeat CPU 0 instructions: 130000000 cycles: 70696526 heartbeat IPC: 1.0995 cumulative IPC: 1.10023 (Simulation time: 0 hr 4 min 23 sec) 
Heartbeat CPU 0 instructions: 140000001 cycles: 79768036 heartbeat IPC: 1.10235 cumulative IPC: 1.10076 (Simulation time: 0 hr 4 min 40 sec) 
Heartbeat CPU 0 instructions: 150000000 cycles: 88709205 heartbeat IPC: 1.11842 cumulative IPC: 1.10425 (Simulation time: 0 hr 4 min 58 sec) 
Heartbeat CPU 0 instructions: 160000002 cycles: 97680617 heartbeat IPC: 1.11465 cumulative IPC: 1.10597 (Simulation time: 0 hr 5 min 15 sec) 
Heartbeat CPU 0 instructions: 170000001 cycles: 106621289 heartbeat IPC: 1.11848 cumulative IPC: 1.10774 (Simulation time: 0 hr 5 min 33 sec) 
Heartbeat CPU 0 instructions: 180000000 cycles: 115585640 heartbeat IPC: 1.11553 cumulative IPC: 1.10871 (Simulation time: 0 hr 5 min 50 sec) 
Heartbeat CPU 0 instructions: 190000003 cycles: 124592199 heartbeat IPC: 1.1103 cumulative IPC: 1.10889 (Simulation time: 0 hr 6 min 7 sec) 
Heartbeat CPU 0 instructions: 200000000 cycles: 133580269 heartbeat IPC: 1.11259 cumulative IPC: 1.10925 (Simulation time: 0 hr 6 min 25 sec) 
Heartbeat CPU 0 instructions: 210000001 cycles: 142463893 heartbeat IPC: 1.12567 cumulative IPC: 1.11073 (Simulation time: 0 hr 6 min 42 sec) 
Heartbeat CPU 0 instructions: 220000000 cycles: 151303902 heartbeat IPC: 1.13122 cumulative IPC: 1.11241 (Simulation time: 0 hr 6 min 59 sec) 
Heartbeat CPU 0 instructions: 230000001 cycles: 160196969 heartbeat IPC: 1.12447 cumulative IPC: 1.11332 (Simulation time: 0 hr 7 min 16 sec) 
Heartbeat CPU 0 instructions: 240000001 cycles: 169148676 heartbeat IPC: 1.11711 cumulative IPC: 1.11359 (Simulation time: 0 hr 7 min 33 sec) 
Heartbeat CPU 0 instructions: 250000001 cycles: 178125040 heartbeat IPC: 1.11404 cumulative IPC: 1.11362 (Simulation time: 0 hr 7 min 51 sec) 
Heartbeat CPU 0 instructions: 260000000 cycles: 187096641 heartbeat IPC: 1.11463 cumulative IPC: 1.11369 (Simulation time: 0 hr 8 min 8 sec) 
Heartbeat CPU 0 instructions: 270000002 cycles: 196068970 heartbeat IPC: 1.11454 cumulative IPC: 1.11374 (Simulation time: 0 hr 8 min 25 sec) 
Heartbeat CPU 0 instructions: 280000002 cycles: 205009422 heartbeat IPC: 1.11851 cumulative IPC: 1.114 (Simulation time: 0 hr 8 min 42 sec) 
Heartbeat CPU 0 instructions: 290000002 cycles: 213996865 heartbeat IPC: 1.11266 cumulative IPC: 1.11393 (Simulation time: 0 hr 9 min 0 sec) 
Heartbeat CPU 0 instructions: 300000002 cycles: 222952069 heartbeat IPC: 1.11667 cumulative IPC: 1.11407 (Simulation time: 0 hr 9 min 17 sec) 
Heartbeat CPU 0 instructions: 310000002 cycles: 231843245 heartbeat IPC: 1.12471 cumulative IPC: 1.11457 (Simulation time: 0 hr 9 min 35 sec) 
Heartbeat CPU 0 instructions: 320000000 cycles: 240872413 heartbeat IPC: 1.10752 cumulative IPC: 1.11425 (Simulation time: 0 hr 9 min 52 sec) 
Heartbeat CPU 0 instructions: 330000000 cycles: 249853551 heartbeat IPC: 1.11344 cumulative IPC: 1.11421 (Simulation time: 0 hr 10 min 9 sec) 
Heartbeat CPU 0 instructions: 340000000 cycles: 259200599 heartbeat IPC: 1.06986 cumulative IPC: 1.11229 (Simulation time: 0 hr 10 min 31 sec) 
Heartbeat CPU 0 instructions: 350000000 cycles: 268547578 heartbeat IPC: 1.06986 cumulative IPC: 1.11053 (Simulation time: 0 hr 10 min 52 sec) 
Heartbeat CPU 0 instructions: 360000001 cycles: 277804374 heartbeat IPC: 1.08029 cumulative IPC: 1.10933 (Simulation time: 0 hr 11 min 12 sec) 
Heartbeat CPU 0 instructions: 370000001 cycles: 286998495 heartbeat IPC: 1.08765 cumulative IPC: 1.10852 (Simulation time: 0 hr 11 min 32 sec) 
Heartbeat CPU 0 instructions: 380000003 cycles: 296172202 heartbeat IPC: 1.09007 cumulative IPC: 1.10785 (Simulation time: 0 hr 11 min 52 sec) 
Heartbeat CPU 0 instructions: 390000000 cycles: 306735130 heartbeat IPC: 0.946707 cumulative IPC: 1.10138 (Simulation time: 0 hr 12 min 15 sec) 
Heartbeat CPU 0 instructions: 400000002 cycles: 314434142 heartbeat IPC: 1.29887 cumulative IPC: 1.10699 (Simulation time: 0 hr 12 min 35 sec) 
Heartbeat CPU 0 instructions: 410000001 cycles: 322209539 heartbeat IPC: 1.28611 cumulative IPC: 1.11199 (Simulation time: 0 hr 12 min 54 sec) 
Heartbeat CPU 0 instructions: 420000003 cycles: 329995281 heartbeat IPC: 1.2844 cumulative IPC: 1.11667 (Simulation time: 0 hr 13 min 12 sec) 
Heartbeat CPU 0 instructions: 430000002 cycles: 337804926 heartbeat IPC: 1.28047 cumulative IPC: 1.12102 (Simulation time: 0 hr 13 min 31 sec) 
Heartbeat CPU 0 instructions: 440000000 cycles: 345620210 heartbeat IPC: 1.27954 cumulative IPC: 1.12512 (Simulation time: 0 hr 13 min 50 sec) 
Heartbeat CPU 0 instructions: 450000000 cycles: 353533575 heartbeat IPC: 1.26368 cumulative IPC: 1.12865 (Simulation time: 0 hr 14 min 8 sec) 
Heartbeat CPU 0 instructions: 460000000 cycles: 361295976 heartbeat IPC: 1.28826 cumulative IPC: 1.13255 (Simulation time: 0 hr 14 min 27 sec) 
Heartbeat CPU 0 instructions: 470000003 cycles: 368940056 heartbeat IPC: 1.3082 cumulative IPC: 1.13668 (Simulation time: 0 hr 14 min 46 sec) 
Heartbeat CPU 0 instructions: 480000000 cycles: 376770761 heartbeat IPC: 1.27702 cumulative IPC: 1.13997 (Simulation time: 0 hr 15 min 5 sec) 
Heartbeat CPU 0 instructions: 490000000 cycles: 386440973 heartbeat IPC: 1.0341 cumulative IPC: 1.13699 (Simulation time: 0 hr 15 min 27 sec) 
Heartbeat CPU 0 instructions: 500000001 cycles: 397098500 heartbeat IPC: 0.938304 cumulative IPC: 1.131 (Simulation time: 0 hr 15 min 53 sec) 
Heartbeat CPU 0 instructions: 510000001 cycles: 407652422 heartbeat IPC: 0.947515 cumulative IPC: 1.12568 (Simulation time: 0 hr 16 min 20 sec) 
Heartbeat CPU 0 instructions: 520000000 cycles: 418252092 heartbeat IPC: 0.943425 cumulative IPC: 1.12053 (Simulation time: 0 hr 16 min 46 sec) 
Heartbeat CPU 0 instructions: 530000002 cycles: 428723205 heartbeat IPC: 0.955009 cumulative IPC: 1.11603 (Simulation time: 0 hr 17 min 12 sec) 
Heartbeat CPU 0 instructions: 540000001 cycles: 439158421 heartbeat IPC: 0.958293 cumulative IPC: 1.11187 (Simulation time: 0 hr 17 min 38 sec) 
Heartbeat CPU 0 instructions: 550000000 cycles: 449608856 heartbeat IPC: 0.956898 cumulative IPC: 1.10789 (Simulation time: 0 hr 18 min 4 sec) 
Heartbeat CPU 0 instructions: 560000000 cycles: 460128898 heartbeat IPC: 0.950567 cumulative IPC: 1.10391 (Simulation time: 0 hr 18 min 30 sec) 
Heartbeat CPU 0 instructions: 570000003 cycles: 470661796 heartbeat IPC: 0.949407 cumulative IPC: 1.1001 (Simulation time: 0 hr 18 min 57 sec) 
Heartbeat CPU 0 instructions: 580000000 cycles: 481180921 heartbeat IPC: 0.950649 cumulative IPC: 1.09651 (Simulation time: 0 hr 19 min 23 sec) 
Heartbeat CPU 0 instructions: 590000000 cycles: 491630444 heartbeat IPC: 0.956981 cumulative IPC: 1.09326 (Simulation time: 0 hr 19 min 49 sec) 
Heartbeat CPU 0 instructions: 600000001 cycles: 502032098 heartbeat IPC: 0.961386 cumulative IPC: 1.09027 (Simulation time: 0 hr 20 min 15 sec) 
Heartbeat CPU 0 instructions: 610000000 cycles: 512560123 heartbeat IPC: 0.949846 cumulative IPC: 1.08712 (Simulation time: 0 hr 20 min 41 sec) 
Heartbeat CPU 0 instructions: 620000003 cycles: 527687776 heartbeat IPC: 0.661041 cumulative IPC: 1.07381 (Simulation time: 0 hr 21 min 7 sec) 
Heartbeat CPU 0 instructions: 630000003 cycles: 543746088 heartbeat IPC: 0.62273 cumulative IPC: 1.05933 (Simulation time: 0 hr 21 min 33 sec) 
Heartbeat CPU 0 instructions: 640000001 cycles: 557580452 heartbeat IPC: 0.722838 cumulative IPC: 1.05028 (Simulation time: 0 hr 21 min 58 sec) 
Heartbeat CPU 0 instructions: 650000001 cycles: 573145209 heartbeat IPC: 0.642477 cumulative IPC: 1.03829 (Simulation time: 0 hr 22 min 25 sec) 
Heartbeat CPU 0 instructions: 660000000 cycles: 586769344 heartbeat IPC: 0.733992 cumulative IPC: 1.03066 (Simulation time: 0 hr 22 min 54 sec) 
Heartbeat CPU 0 instructions: 670000003 cycles: 598607035 heartbeat IPC: 0.84476 cumulative IPC: 1.0267 (Simulation time: 0 hr 23 min 21 sec) 
Heartbeat CPU 0 instructions: 680000003 cycles: 619649748 heartbeat IPC: 0.475224 cumulative IPC: 1.00656 (Simulation time: 0 hr 23 min 55 sec) 
Heartbeat CPU 0 instructions: 690000000 cycles: 629522143 heartbeat IPC: 1.01293 cumulative IPC: 1.00667 (Simulation time: 0 hr 24 min 21 sec) 
Heartbeat CPU 0 instructions: 700000000 cycles: 638463425 heartbeat IPC: 1.11841 cumulative IPC: 1.00835 (Simulation time: 0 hr 24 min 46 sec) 
Heartbeat CPU 0 instructions: 710000002 cycles: 647710141 heartbeat IPC: 1.08147 cumulative IPC: 1.00946 (Simulation time: 0 hr 25 min 11 sec) 
Heartbeat CPU 0 instructions: 720000000 cycles: 656856741 heartbeat IPC: 1.0933 cumulative IPC: 1.01072 (Simulation time: 0 hr 25 min 35 sec) 
Heartbeat CPU 0 instructions: 730000003 cycles: 666245065 heartbeat IPC: 1.06515 cumulative IPC: 1.01154 (Simulation time: 0 hr 26 min 1 sec) 
Heartbeat CPU 0 instructions: 740000000 cycles: 679356727 heartbeat IPC: 0.76268 cumulative IPC: 1.0064 (Simulation time: 0 hr 26 min 28 sec) 
Heartbeat CPU 0 instructions: 750000003 cycles: 698553478 heartbeat IPC: 0.520922 cumulative IPC: 0.992179 (Simulation time: 0 hr 27 min 1 sec) 
Heartbeat CPU 0 instructions: 760000001 cycles: 714323262 heartbeat IPC: 0.634124 cumulative IPC: 0.983763 (Simulation time: 0 hr 27 min 32 sec) 
Heartbeat CPU 0 instructions: 770000000 cycles: 735051426 heartbeat IPC: 0.482435 cumulative IPC: 0.968738 (Simulation time: 0 hr 28 min 5 sec) 
Heartbeat CPU 0 instructions: 780000003 cycles: 749100684 heartbeat IPC: 0.711782 cumulative IPC: 0.963622 (Simulation time: 0 hr 28 min 33 sec) 
Heartbeat CPU 0 instructions: 790000003 cycles: 762329371 heartbeat IPC: 0.755933 cumulative IPC: 0.9598 (Simulation time: 0 hr 29 min 2 sec) 
Heartbeat CPU 0 instructions: 800000003 cycles: 777922710 heartbeat IPC: 0.641299 cumulative IPC: 0.953038 (Simulation time: 0 hr 29 min 30 sec) 
Heartbeat CPU 0 instructions: 810000000 cycles: 799132106 heartbeat IPC: 0.471489 cumulative IPC: 0.939523 (Simulation time: 0 hr 30 min 3 sec) 
Heartbeat CPU 0 instructions: 820000001 cycles: 828037137 heartbeat IPC: 0.345961 cumulative IPC: 0.917656 (Simulation time: 0 hr 30 min 41 sec) 
Heartbeat CPU 0 instructions: 830000003 cycles: 843895973 heartbeat IPC: 0.630563 cumulative IPC: 0.911968 (Simulation time: 0 hr 31 min 8 sec) 
Heartbeat CPU 0 instructions: 840000001 cycles: 861628891 heartbeat IPC: 0.563923 cumulative IPC: 0.904425 (Simulation time: 0 hr 31 min 38 sec) 
Heartbeat CPU 0 instructions: 850000003 cycles: 887828070 heartbeat IPC: 0.381691 cumulative IPC: 0.888206 (Simulation time: 0 hr 32 min 16 sec) 
Heartbeat CPU 0 instructions: 860000003 cycles: 903949573 heartbeat IPC: 0.62029 cumulative IPC: 0.883187 (Simulation time: 0 hr 32 min 47 sec) 
Heartbeat CPU 0 instructions: 870000003 cycles: 914154312 heartbeat IPC: 0.979937 cumulative IPC: 0.884321 (Simulation time: 0 hr 33 min 11 sec) 
Heartbeat CPU 0 instructions: 880000000 cycles: 926414016 heartbeat IPC: 0.81568 cumulative IPC: 0.883368 (Simulation time: 0 hr 33 min 37 sec) 
Heartbeat CPU 0 instructions: 890000002 cycles: 935792549 heartbeat IPC: 1.06627 cumulative IPC: 0.88529 (Simulation time: 0 hr 34 min 2 sec) 
Heartbeat CPU 0 instructions: 900000002 cycles: 947418148 heartbeat IPC: 0.860171 cumulative IPC: 0.884967 (Simulation time: 0 hr 34 min 28 sec) 
Heartbeat CPU 0 instructions: 910000002 cycles: 956164338 heartbeat IPC: 1.14336 cumulative IPC: 0.887443 (Simulation time: 0 hr 34 min 51 sec) 
Heartbeat CPU 0 instructions: 920000002 cycles: 968110217 heartbeat IPC: 0.837109 cumulative IPC: 0.886793 (Simulation time: 0 hr 35 min 18 sec) 
Heartbeat CPU 0 instructions: 930000003 cycles: 976644041 heartbeat IPC: 1.17181 cumulative IPC: 0.889399 (Simulation time: 0 hr 35 min 41 sec) 
Heartbeat CPU 0 instructions: 940000003 cycles: 988754937 heartbeat IPC: 0.825703 cumulative IPC: 0.888583 (Simulation time: 0 hr 36 min 8 sec) 
Heartbeat CPU 0 instructions: 950000001 cycles: 997236269 heartbeat IPC: 1.17906 cumulative IPC: 0.891166 (Simulation time: 0 hr 36 min 31 sec) 
Heartbeat CPU 0 instructions: 960000001 cycles: 1010437820 heartbeat IPC: 0.757487 cumulative IPC: 0.889341 (Simulation time: 0 hr 36 min 58 sec) 
Heartbeat CPU 0 instructions: 970000000 cycles: 1018429921 heartbeat IPC: 1.25124 cumulative IPC: 0.892307 (Simulation time: 0 hr 37 min 21 sec) 
Heartbeat CPU 0 instructions: 980000003 cycles: 1026486485 heartbeat IPC: 1.24122 cumulative IPC: 0.895167 (Simulation time: 0 hr 37 min 44 sec) 
Heartbeat CPU 0 instructions: 990000000 cycles: 1034583852 heartbeat IPC: 1.23497 cumulative IPC: 0.897943 (Simulation time: 0 hr 38 min 6 sec) 
Heartbeat CPU 0 instructions: 1000000000 cycles: 1048735748 heartbeat IPC: 0.706619 cumulative IPC: 0.89525 (Simulation time: 0 hr 38 min 32 sec) 
Heartbeat CPU 0 instructions: 1010000002 cycles: 1070184208 heartbeat IPC: 0.466234 cumulative IPC: 0.886288 (Simulation time: 0 hr 39 min 3 sec) 
Heartbeat CPU 0 instructions: 1020000002 cycles: 1078809989 heartbeat IPC: 1.15932 cumulative IPC: 0.888562 (Simulation time: 0 hr 39 min 27 sec) 
Heartbeat CPU 0 instructions: 1030000000 cycles: 1088828096 heartbeat IPC: 0.998192 cumulative IPC: 0.889613 (Simulation time: 0 hr 39 min 53 sec) 
Heartbeat CPU 0 instructions: 1040000001 cycles: 1098876137 heartbeat IPC: 0.995219 cumulative IPC: 0.890618 (Simulation time: 0 hr 40 min 18 sec) 
Heartbeat CPU 0 instructions: 1050000001 cycles: 1107537381 heartbeat IPC: 1.15457 cumulative IPC: 0.892767 (Simulation time: 0 hr 40 min 42 sec) 
Heartbeat CPU 0 instructions: 1060000001 cycles: 1117242439 heartbeat IPC: 1.03039 cumulative IPC: 0.894011 (Simulation time: 0 hr 41 min 7 sec) 
Heartbeat CPU 0 instructions: 1070000003 cycles: 1126976241 heartbeat IPC: 1.02735 cumulative IPC: 0.895208 (Simulation time: 0 hr 41 min 32 sec) 
Heartbeat CPU 0 instructions: 1080000002 cycles: 1143772548 heartbeat IPC: 0.595369 cumulative IPC: 0.890631 (Simulation time: 0 hr 42 min 3 sec) 
Heartbeat CPU 0 instructions: 1090000002 cycles: 1162774205 heartbeat IPC: 0.52627 cumulative IPC: 0.884446 (Simulation time: 0 hr 42 min 37 sec) 
Heartbeat CPU 0 instructions: 1100000000 cycles: 1179181559 heartbeat IPC: 0.609483 cumulative IPC: 0.880474 (Simulation time: 0 hr 43 min 7 sec) 
Finished CPU 0 instructions: 1000000000 cycles: 1135752167 cumulative IPC: 0.880474 (Simulation time: 0 hr 43 min 7 sec) 

ChampSim completed all CPUs

Region of Interest Statistics

CPU 0 cumulative IPC: 0.880474 instructions: 1000000000 cycles: 1135752167
L1D TOTAL     ACCESS:  238827464  HIT:  226491263  MISS:   12336201
L1D LOAD      ACCESS:  179093468  HIT:  170099853  MISS:    8993615
L1D RFO       ACCESS:   59733996  HIT:   56391410  MISS:    3342586
L1D PREFETCH  ACCESS:          0  HIT:          0  MISS:          0
L1D WRITEBACK ACCESS:          0  HIT:          0  MISS:          0
L1D PREFETCH  REQUESTED:          0  ISSUED:          0  USEFUL:          0  USELESS:          0
L1D AVERAGE MISS LATENCY: 142.09 cycles
L1I TOTAL     ACCESS:  172777135  HIT:  172074393  MISS:     702742
L1I LOAD      ACCESS:  172777135  HIT:  172074393  MISS:     702742
L1I RFO       ACCESS:          0  HIT:          0  MISS:          0
L1I PREFETCH  ACCESS:          0  HIT:          0  MISS:          0
L1I WRITEBACK ACCESS:          0  HIT:          0  MISS:          0
L1I PREFETCH  REQUESTED:          0  ISSUED:          0  USEFUL:          0  USELESS:          0
L1I AVERAGE MISS LATENCY: 22.3957 cycles
L2C TOTAL     ACCESS:   18364060  HIT:   11010411  MISS:    7353649
L2C LOAD      ACCESS:    9695995  HIT:    4059380  MISS:    5636615
L2C RFO       ACCESS:    3341840  HIT:    1630965  MISS:    1710875
L2C PREFETCH  ACCESS:          0  HIT:          0  MISS:          0
L2C WRITEBACK ACCESS:    5326225  HIT:    5320066  MISS:       6159
L2C PREFETCH  REQUESTED:          0  ISSUED:          0  USEFUL:          0  USELESS:          0
L2C AVERAGE MISS LATENCY: 212.869 cycles
LLC TOTAL     ACCESS:   10667191  HIT:    3618745  MISS:    7048446
LLC LOAD      ACCESS:    5636611  HIT:    1336841  MISS:    4299770
LLC RFO       ACCESS:    1710858  HIT:     505701  MISS:    1205157
LLC PREFETCH  ACCESS:          0  HIT:          0  MISS:          0
LLC WRITEBACK ACCESS:    3319722  HIT:    1776203  MISS:    1543519
LLC PREFETCH  REQUESTED:          0  ISSUED:          0  USEFUL:          0  USELESS:          0
LLC AVERAGE MISS LATENCY: 190.16 cycles
Major fault: 0 Minor fault: 19417
==============================
Perceptron RRIP Stats:
   Num Updates: 10637843
   Num Trains:  184824
==============================
perceptron #0: -10 -6 8 -4 -2 2 0 -12 0 -6 8 0 -2 2 0 -26 


DRAM Statistics
 CHANNEL 0
 RQ ROW_BUFFER_HIT:    1006600  ROW_BUFFER_MISS:    4497900
 DBUS_CONGESTED:    2636621
 WQ ROW_BUFFER_HIT:     866414  ROW_BUFFER_MISS:    1335943  FULL:     188929

 AVG_CONGESTED_CYCLE: 6

CPU 0 Branch Prediction Accuracy: 97.1042% MPKI: 2.81547 Average ROB Occupancy at Mispredict: 112.006

Branch types
NOT_BRANCH: 902775037 90.2775%
BRANCH_DIRECT_JUMP: 4806588 0.480659%
BRANCH_INDIRECT: 59 5.9e-06%
BRANCH_CONDITIONAL: 81914089 8.19141%
BRANCH_DIRECT_CALL: 5252089 0.525209%
BRANCH_INDIRECT_CALL: 0 0%
BRANCH_RETURN: 5252094 0.525209%
BRANCH_OTHER: 0 0%

