
*** ChampSim Multicore Out-of-Order Simulator ***

Warmup Instructions: 100000000
Simulation Instructions: 1000000000
Number of CPUs: 1
LLC sets: 2048
LLC ways: 16
Off-chip DRAM Size: 4096 MB Channels: 1 Width: 64-bit Data Rate: 3200 MT/s

CPU 0 runs /scratch/user/kevin.weston/dpc3-traces/623.champsimtrace.xz
CPU 0 Bimodal branch predictor
Initialize RRPV
Initialize PRRIP state
Heartbeat CPU 0 instructions: 10000002 cycles: 5062951 heartbeat IPC: 1.97513 cumulative IPC: 1.97513 (Simulation time: 0 hr 0 min 22 sec) 
Heartbeat CPU 0 instructions: 20000001 cycles: 9508332 heartbeat IPC: 2.24953 cumulative IPC: 2.10342 (Simulation time: 0 hr 0 min 43 sec) 
Heartbeat CPU 0 instructions: 30000000 cycles: 14622055 heartbeat IPC: 1.95552 cumulative IPC: 2.0517 (Simulation time: 0 hr 1 min 6 sec) 
Heartbeat CPU 0 instructions: 40000002 cycles: 19907326 heartbeat IPC: 1.89205 cumulative IPC: 2.00931 (Simulation time: 0 hr 1 min 29 sec) 
Heartbeat CPU 0 instructions: 50000002 cycles: 25091161 heartbeat IPC: 1.92907 cumulative IPC: 1.99273 (Simulation time: 0 hr 1 min 53 sec) 
Heartbeat CPU 0 instructions: 60000003 cycles: 29627592 heartbeat IPC: 2.20438 cumulative IPC: 2.02514 (Simulation time: 0 hr 2 min 13 sec) 
Heartbeat CPU 0 instructions: 70000002 cycles: 34080830 heartbeat IPC: 2.24556 cumulative IPC: 2.05394 (Simulation time: 0 hr 2 min 34 sec) 
Heartbeat CPU 0 instructions: 80000000 cycles: 39310836 heartbeat IPC: 1.91204 cumulative IPC: 2.03506 (Simulation time: 0 hr 2 min 57 sec) 
Heartbeat CPU 0 instructions: 90000000 cycles: 44415894 heartbeat IPC: 1.95884 cumulative IPC: 2.0263 (Simulation time: 0 hr 3 min 20 sec) 
Heartbeat CPU 0 instructions: 100000001 cycles: 49708424 heartbeat IPC: 1.88946 cumulative IPC: 2.01173 (Simulation time: 0 hr 3 min 43 sec) 

Warmup complete CPU 0 instructions: 100000001 cycles: 49708424 (Simulation time: 0 hr 3 min 43 sec) 

Heartbeat CPU 0 instructions: 110000000 cycles: 69832130 heartbeat IPC: 0.496926 cumulative IPC: 0.496926 (Simulation time: 0 hr 4 min 6 sec) 
Heartbeat CPU 0 instructions: 120000003 cycles: 88110415 heartbeat IPC: 0.547097 cumulative IPC: 0.520806 (Simulation time: 0 hr 4 min 27 sec) 
Heartbeat CPU 0 instructions: 130000000 cycles: 102778110 heartbeat IPC: 0.68177 cumulative IPC: 0.565294 (Simulation time: 0 hr 4 min 48 sec) 
Heartbeat CPU 0 instructions: 140000000 cycles: 120947567 heartbeat IPC: 0.550374 cumulative IPC: 0.561489 (Simulation time: 0 hr 5 min 11 sec) 
Heartbeat CPU 0 instructions: 150000000 cycles: 143373449 heartbeat IPC: 0.445913 cumulative IPC: 0.533817 (Simulation time: 0 hr 5 min 36 sec) 
Heartbeat CPU 0 instructions: 160000000 cycles: 164242885 heartbeat IPC: 0.47917 cumulative IPC: 0.52386 (Simulation time: 0 hr 6 min 0 sec) 
Heartbeat CPU 0 instructions: 170000000 cycles: 186643826 heartbeat IPC: 0.44641 cumulative IPC: 0.51119 (Simulation time: 0 hr 6 min 25 sec) 
Heartbeat CPU 0 instructions: 180000001 cycles: 207245944 heartbeat IPC: 0.485387 cumulative IPC: 0.507816 (Simulation time: 0 hr 6 min 48 sec) 
Heartbeat CPU 0 instructions: 190000000 cycles: 225813062 heartbeat IPC: 0.538586 cumulative IPC: 0.51106 (Simulation time: 0 hr 7 min 9 sec) 
Heartbeat CPU 0 instructions: 200000002 cycles: 241496185 heartbeat IPC: 0.637628 cumulative IPC: 0.52141 (Simulation time: 0 hr 7 min 30 sec) 
Heartbeat CPU 0 instructions: 210000001 cycles: 256435208 heartbeat IPC: 0.669388 cumulative IPC: 0.532103 (Simulation time: 0 hr 7 min 52 sec) 
Heartbeat CPU 0 instructions: 220000000 cycles: 279042541 heartbeat IPC: 0.442334 cumulative IPC: 0.523254 (Simulation time: 0 hr 8 min 17 sec) 
Heartbeat CPU 0 instructions: 230000001 cycles: 299049521 heartbeat IPC: 0.499826 cumulative IPC: 0.521374 (Simulation time: 0 hr 8 min 39 sec) 
Heartbeat CPU 0 instructions: 240000001 cycles: 317276683 heartbeat IPC: 0.548632 cumulative IPC: 0.523231 (Simulation time: 0 hr 9 min 1 sec) 
Heartbeat CPU 0 instructions: 250000002 cycles: 334387068 heartbeat IPC: 0.58444 cumulative IPC: 0.52691 (Simulation time: 0 hr 9 min 22 sec) 
Heartbeat CPU 0 instructions: 260000001 cycles: 350128651 heartbeat IPC: 0.63526 cumulative IPC: 0.532587 (Simulation time: 0 hr 9 min 43 sec) 
Heartbeat CPU 0 instructions: 270000001 cycles: 361684772 heartbeat IPC: 0.865342 cumulative IPC: 0.544913 (Simulation time: 0 hr 10 min 2 sec) 
Heartbeat CPU 0 instructions: 280000001 cycles: 374765243 heartbeat IPC: 0.764498 cumulative IPC: 0.553749 (Simulation time: 0 hr 10 min 23 sec) 
Heartbeat CPU 0 instructions: 290000003 cycles: 391740643 heartbeat IPC: 0.589088 cumulative IPC: 0.555503 (Simulation time: 0 hr 10 min 45 sec) 
Heartbeat CPU 0 instructions: 300000001 cycles: 416357300 heartbeat IPC: 0.406229 cumulative IPC: 0.545481 (Simulation time: 0 hr 11 min 11 sec) 
Heartbeat CPU 0 instructions: 310000002 cycles: 436127531 heartbeat IPC: 0.505811 cumulative IPC: 0.543451 (Simulation time: 0 hr 11 min 33 sec) 
Heartbeat CPU 0 instructions: 320000000 cycles: 457715397 heartbeat IPC: 0.463223 cumulative IPC: 0.539206 (Simulation time: 0 hr 11 min 58 sec) 
Heartbeat CPU 0 instructions: 330000000 cycles: 477941804 heartbeat IPC: 0.494403 cumulative IPC: 0.53709 (Simulation time: 0 hr 12 min 21 sec) 
Heartbeat CPU 0 instructions: 340000000 cycles: 496294679 heartbeat IPC: 0.544874 cumulative IPC: 0.53741 (Simulation time: 0 hr 12 min 43 sec) 
Heartbeat CPU 0 instructions: 350000003 cycles: 513507273 heartbeat IPC: 0.58097 cumulative IPC: 0.539027 (Simulation time: 0 hr 13 min 4 sec) 
Heartbeat CPU 0 instructions: 360000000 cycles: 530002313 heartbeat IPC: 0.606243 cumulative IPC: 0.541335 (Simulation time: 0 hr 13 min 26 sec) 
Heartbeat CPU 0 instructions: 370000001 cycles: 545920320 heartbeat IPC: 0.628219 cumulative IPC: 0.544122 (Simulation time: 0 hr 13 min 49 sec) 
Heartbeat CPU 0 instructions: 380000002 cycles: 557042780 heartbeat IPC: 0.899082 cumulative IPC: 0.551904 (Simulation time: 0 hr 14 min 8 sec) 
Heartbeat CPU 0 instructions: 390000001 cycles: 568006128 heartbeat IPC: 0.91213 cumulative IPC: 0.559524 (Simulation time: 0 hr 14 min 27 sec) 
Heartbeat CPU 0 instructions: 400000001 cycles: 580473045 heartbeat IPC: 0.802123 cumulative IPC: 0.565222 (Simulation time: 0 hr 14 min 48 sec) 
Heartbeat CPU 0 instructions: 410000000 cycles: 595424669 heartbeat IPC: 0.668824 cumulative IPC: 0.568061 (Simulation time: 0 hr 15 min 9 sec) 
Heartbeat CPU 0 instructions: 420000000 cycles: 617687016 heartbeat IPC: 0.449189 cumulative IPC: 0.563402 (Simulation time: 0 hr 15 min 33 sec) 
Heartbeat CPU 0 instructions: 430000003 cycles: 638974142 heartbeat IPC: 0.469768 cumulative IPC: 0.560019 (Simulation time: 0 hr 15 min 57 sec) 
Heartbeat CPU 0 instructions: 440000000 cycles: 657883296 heartbeat IPC: 0.528844 cumulative IPC: 0.55905 (Simulation time: 0 hr 16 min 19 sec) 
Heartbeat CPU 0 instructions: 450000001 cycles: 674532790 heartbeat IPC: 0.600619 cumulative IPC: 0.560157 (Simulation time: 0 hr 16 min 39 sec) 
Heartbeat CPU 0 instructions: 460000001 cycles: 688599163 heartbeat IPC: 0.710915 cumulative IPC: 0.563477 (Simulation time: 0 hr 17 min 1 sec) 
Heartbeat CPU 0 instructions: 470000001 cycles: 710939998 heartbeat IPC: 0.447611 cumulative IPC: 0.559562 (Simulation time: 0 hr 17 min 25 sec) 
Heartbeat CPU 0 instructions: 480000001 cycles: 731327974 heartbeat IPC: 0.490485 cumulative IPC: 0.557496 (Simulation time: 0 hr 17 min 48 sec) 
Heartbeat CPU 0 instructions: 490000002 cycles: 748626627 heartbeat IPC: 0.57808 cumulative IPC: 0.558005 (Simulation time: 0 hr 18 min 10 sec) 
Heartbeat CPU 0 instructions: 500000000 cycles: 769475025 heartbeat IPC: 0.479653 cumulative IPC: 0.555736 (Simulation time: 0 hr 18 min 35 sec) 
Heartbeat CPU 0 instructions: 510000000 cycles: 790559934 heartbeat IPC: 0.474273 cumulative IPC: 0.553417 (Simulation time: 0 hr 18 min 58 sec) 
Heartbeat CPU 0 instructions: 520000002 cycles: 809428777 heartbeat IPC: 0.529974 cumulative IPC: 0.552835 (Simulation time: 0 hr 19 min 21 sec) 
Heartbeat CPU 0 instructions: 530000000 cycles: 827023809 heartbeat IPC: 0.568342 cumulative IPC: 0.553186 (Simulation time: 0 hr 19 min 42 sec) 
Heartbeat CPU 0 instructions: 540000001 cycles: 843723833 heartbeat IPC: 0.598802 cumulative IPC: 0.554145 (Simulation time: 0 hr 20 min 4 sec) 
Heartbeat CPU 0 instructions: 550000000 cycles: 859838405 heartbeat IPC: 0.620556 cumulative IPC: 0.555466 (Simulation time: 0 hr 20 min 26 sec) 
Heartbeat CPU 0 instructions: 560000001 cycles: 875476672 heartbeat IPC: 0.639457 cumulative IPC: 0.557057 (Simulation time: 0 hr 20 min 48 sec) 
Heartbeat CPU 0 instructions: 570000000 cycles: 885910185 heartbeat IPC: 0.95845 cumulative IPC: 0.562065 (Simulation time: 0 hr 21 min 7 sec) 
Heartbeat CPU 0 instructions: 580000001 cycles: 896438137 heartbeat IPC: 0.949852 cumulative IPC: 0.566887 (Simulation time: 0 hr 21 min 26 sec) 
Heartbeat CPU 0 instructions: 590000001 cycles: 908289903 heartbeat IPC: 0.843756 cumulative IPC: 0.570709 (Simulation time: 0 hr 21 min 46 sec) 
Heartbeat CPU 0 instructions: 600000001 cycles: 921803755 heartbeat IPC: 0.739981 cumulative IPC: 0.573332 (Simulation time: 0 hr 22 min 7 sec) 
Heartbeat CPU 0 instructions: 610000001 cycles: 938675634 heartbeat IPC: 0.592702 cumulative IPC: 0.573699 (Simulation time: 0 hr 22 min 30 sec) 
Heartbeat CPU 0 instructions: 620000000 cycles: 962185402 heartbeat IPC: 0.425355 cumulative IPC: 0.569877 (Simulation time: 0 hr 22 min 54 sec) 
Heartbeat CPU 0 instructions: 630000002 cycles: 984691303 heartbeat IPC: 0.444328 cumulative IPC: 0.566855 (Simulation time: 0 hr 23 min 19 sec) 
Heartbeat CPU 0 instructions: 640000002 cycles: 1007211619 heartbeat IPC: 0.444044 cumulative IPC: 0.563967 (Simulation time: 0 hr 23 min 44 sec) 
Heartbeat CPU 0 instructions: 650000000 cycles: 1026878119 heartbeat IPC: 0.508479 cumulative IPC: 0.56285 (Simulation time: 0 hr 24 min 6 sec) 
Heartbeat CPU 0 instructions: 660000000 cycles: 1044937272 heartbeat IPC: 0.553736 cumulative IPC: 0.562685 (Simulation time: 0 hr 24 min 27 sec) 
Heartbeat CPU 0 instructions: 670000003 cycles: 1061895594 heartbeat IPC: 0.589681 cumulative IPC: 0.563137 (Simulation time: 0 hr 24 min 48 sec) 
Heartbeat CPU 0 instructions: 680000000 cycles: 1077470579 heartbeat IPC: 0.642055 cumulative IPC: 0.564333 (Simulation time: 0 hr 25 min 10 sec) 
Heartbeat CPU 0 instructions: 690000001 cycles: 1088517950 heartbeat IPC: 0.905193 cumulative IPC: 0.567958 (Simulation time: 0 hr 25 min 29 sec) 
Heartbeat CPU 0 instructions: 700000001 cycles: 1101392003 heartbeat IPC: 0.776756 cumulative IPC: 0.570514 (Simulation time: 0 hr 25 min 49 sec) 
Heartbeat CPU 0 instructions: 710000000 cycles: 1118161692 heartbeat IPC: 0.596314 cumulative IPC: 0.570919 (Simulation time: 0 hr 26 min 12 sec) 
Heartbeat CPU 0 instructions: 720000002 cycles: 1141420095 heartbeat IPC: 0.429952 cumulative IPC: 0.567915 (Simulation time: 0 hr 26 min 37 sec) 
Heartbeat CPU 0 instructions: 730000000 cycles: 1163108992 heartbeat IPC: 0.461065 cumulative IPC: 0.565834 (Simulation time: 0 hr 27 min 1 sec) 
Heartbeat CPU 0 instructions: 740000000 cycles: 1185433919 heartbeat IPC: 0.44793 cumulative IPC: 0.563516 (Simulation time: 0 hr 27 min 26 sec) 
Heartbeat CPU 0 instructions: 750000002 cycles: 1209150373 heartbeat IPC: 0.421648 cumulative IPC: 0.560615 (Simulation time: 0 hr 27 min 51 sec) 
Heartbeat CPU 0 instructions: 760000000 cycles: 1232946650 heartbeat IPC: 0.420234 cumulative IPC: 0.557791 (Simulation time: 0 hr 28 min 17 sec) 
Heartbeat CPU 0 instructions: 770000000 cycles: 1253495738 heartbeat IPC: 0.48664 cumulative IPC: 0.556577 (Simulation time: 0 hr 28 min 39 sec) 
Heartbeat CPU 0 instructions: 780000002 cycles: 1272123130 heartbeat IPC: 0.536844 cumulative IPC: 0.556276 (Simulation time: 0 hr 29 min 1 sec) 
Heartbeat CPU 0 instructions: 790000000 cycles: 1289314273 heartbeat IPC: 0.581695 cumulative IPC: 0.556629 (Simulation time: 0 hr 29 min 22 sec) 
Heartbeat CPU 0 instructions: 800000002 cycles: 1302206779 heartbeat IPC: 0.775645 cumulative IPC: 0.558883 (Simulation time: 0 hr 29 min 42 sec) 
Heartbeat CPU 0 instructions: 810000002 cycles: 1318859585 heartbeat IPC: 0.600499 cumulative IPC: 0.559429 (Simulation time: 0 hr 30 min 5 sec) 
Heartbeat CPU 0 instructions: 820000002 cycles: 1342138900 heartbeat IPC: 0.429566 cumulative IPC: 0.55709 (Simulation time: 0 hr 30 min 29 sec) 
Heartbeat CPU 0 instructions: 830000000 cycles: 1363065530 heartbeat IPC: 0.47786 cumulative IPC: 0.555827 (Simulation time: 0 hr 30 min 54 sec) 
Heartbeat CPU 0 instructions: 840000000 cycles: 1386070833 heartbeat IPC: 0.434682 cumulative IPC: 0.553742 (Simulation time: 0 hr 31 min 18 sec) 
Heartbeat CPU 0 instructions: 850000001 cycles: 1405815322 heartbeat IPC: 0.506471 cumulative IPC: 0.553054 (Simulation time: 0 hr 31 min 41 sec) 
Heartbeat CPU 0 instructions: 860000000 cycles: 1424666434 heartbeat IPC: 0.530473 cumulative IPC: 0.552744 (Simulation time: 0 hr 32 min 5 sec) 
Heartbeat CPU 0 instructions: 870000001 cycles: 1446026730 heartbeat IPC: 0.468158 cumulative IPC: 0.55145 (Simulation time: 0 hr 32 min 28 sec) 
Heartbeat CPU 0 instructions: 880000000 cycles: 1464929327 heartbeat IPC: 0.529028 cumulative IPC: 0.551151 (Simulation time: 0 hr 32 min 50 sec) 
Heartbeat CPU 0 instructions: 890000000 cycles: 1481318719 heartbeat IPC: 0.610151 cumulative IPC: 0.551826 (Simulation time: 0 hr 33 min 12 sec) 
Heartbeat CPU 0 instructions: 900000001 cycles: 1505401563 heartbeat IPC: 0.415233 cumulative IPC: 0.549566 (Simulation time: 0 hr 33 min 38 sec) 
Heartbeat CPU 0 instructions: 910000000 cycles: 1526143690 heartbeat IPC: 0.482111 cumulative IPC: 0.548619 (Simulation time: 0 hr 34 min 1 sec) 
Heartbeat CPU 0 instructions: 920000001 cycles: 1544880344 heartbeat IPC: 0.533713 cumulative IPC: 0.548432 (Simulation time: 0 hr 34 min 22 sec) 
Heartbeat CPU 0 instructions: 930000000 cycles: 1559981826 heartbeat IPC: 0.662187 cumulative IPC: 0.549569 (Simulation time: 0 hr 34 min 43 sec) 
Heartbeat CPU 0 instructions: 940000002 cycles: 1579697413 heartbeat IPC: 0.507213 cumulative IPC: 0.549024 (Simulation time: 0 hr 35 min 7 sec) 
Heartbeat CPU 0 instructions: 950000001 cycles: 1600762538 heartbeat IPC: 0.474718 cumulative IPC: 0.548014 (Simulation time: 0 hr 35 min 30 sec) 
Heartbeat CPU 0 instructions: 960000001 cycles: 1622365516 heartbeat IPC: 0.462899 cumulative IPC: 0.546845 (Simulation time: 0 hr 35 min 55 sec) 
Heartbeat CPU 0 instructions: 970000001 cycles: 1642466151 heartbeat IPC: 0.497497 cumulative IPC: 0.546222 (Simulation time: 0 hr 36 min 18 sec) 
Heartbeat CPU 0 instructions: 980000000 cycles: 1660733293 heartbeat IPC: 0.547431 cumulative IPC: 0.546236 (Simulation time: 0 hr 36 min 39 sec) 
Heartbeat CPU 0 instructions: 990000000 cycles: 1677881286 heartbeat IPC: 0.583159 cumulative IPC: 0.546625 (Simulation time: 0 hr 37 min 0 sec) 
Heartbeat CPU 0 instructions: 1000000000 cycles: 1690908889 heartbeat IPC: 0.767601 cumulative IPC: 0.548379 (Simulation time: 0 hr 37 min 20 sec) 
Heartbeat CPU 0 instructions: 1010000001 cycles: 1704718626 heartbeat IPC: 0.724127 cumulative IPC: 0.549846 (Simulation time: 0 hr 37 min 41 sec) 
Heartbeat CPU 0 instructions: 1020000002 cycles: 1725892726 heartbeat IPC: 0.472275 cumulative IPC: 0.548866 (Simulation time: 0 hr 38 min 5 sec) 
Heartbeat CPU 0 instructions: 1030000000 cycles: 1747046122 heartbeat IPC: 0.472737 cumulative IPC: 0.547917 (Simulation time: 0 hr 38 min 28 sec) 
Heartbeat CPU 0 instructions: 1040000000 cycles: 1765494919 heartbeat IPC: 0.542041 cumulative IPC: 0.547854 (Simulation time: 0 hr 38 min 50 sec) 
Heartbeat CPU 0 instructions: 1050000000 cycles: 1783995092 heartbeat IPC: 0.540536 cumulative IPC: 0.547776 (Simulation time: 0 hr 39 min 13 sec) 
Heartbeat CPU 0 instructions: 1060000002 cycles: 1805646394 heartbeat IPC: 0.461866 cumulative IPC: 0.546716 (Simulation time: 0 hr 39 min 37 sec) 
Heartbeat CPU 0 instructions: 1070000003 cycles: 1824539488 heartbeat IPC: 0.529294 cumulative IPC: 0.546531 (Simulation time: 0 hr 39 min 58 sec) 
Heartbeat CPU 0 instructions: 1080000001 cycles: 1840011396 heartbeat IPC: 0.646333 cumulative IPC: 0.547393 (Simulation time: 0 hr 40 min 20 sec) 
Heartbeat CPU 0 instructions: 1090000001 cycles: 1862177984 heartbeat IPC: 0.451129 cumulative IPC: 0.546216 (Simulation time: 0 hr 40 min 45 sec) 
Heartbeat CPU 0 instructions: 1100000000 cycles: 1882077709 heartbeat IPC: 0.502519 cumulative IPC: 0.545741 (Simulation time: 0 hr 41 min 7 sec) 
Finished CPU 0 instructions: 1000000000 cycles: 1832369286 cumulative IPC: 0.545741 (Simulation time: 0 hr 41 min 7 sec) 

ChampSim completed all CPUs

Region of Interest Statistics

CPU 0 cumulative IPC: 0.545741 instructions: 1000000000 cycles: 1832369286
L1D TOTAL     ACCESS:  230944467  HIT:  184686292  MISS:   46258175
L1D LOAD      ACCESS:  164152637  HIT:  119402341  MISS:   44750296
L1D RFO       ACCESS:   66791830  HIT:   65283951  MISS:    1507879
L1D PREFETCH  ACCESS:          0  HIT:          0  MISS:          0
L1D WRITEBACK ACCESS:          0  HIT:          0  MISS:          0
L1D PREFETCH  REQUESTED:          0  ISSUED:          0  USEFUL:          0  USELESS:          0
L1D AVERAGE MISS LATENCY: 35.079 cycles
L1I TOTAL     ACCESS:  220958335  HIT:  218497646  MISS:    2460689
L1I LOAD      ACCESS:  220958335  HIT:  218497646  MISS:    2460689
L1I RFO       ACCESS:          0  HIT:          0  MISS:          0
L1I PREFETCH  ACCESS:          0  HIT:          0  MISS:          0
L1I WRITEBACK ACCESS:          0  HIT:          0  MISS:          0
L1I PREFETCH  REQUESTED:          0  ISSUED:          0  USEFUL:          0  USELESS:          0
L1I AVERAGE MISS LATENCY: 20.5872 cycles
L2C TOTAL     ACCESS:   51054621  HIT:   29745099  MISS:   21309522
L2C LOAD      ACCESS:   47210918  HIT:   27267408  MISS:   19943510
L2C RFO       ACCESS:    1507858  HIT:     142532  MISS:    1365326
L2C PREFETCH  ACCESS:          0  HIT:          0  MISS:          0
L2C WRITEBACK ACCESS:    2335845  HIT:    2335159  MISS:        686
L2C PREFETCH  REQUESTED:          0  ISSUED:          0  USEFUL:          0  USELESS:          0
L2C AVERAGE MISS LATENCY: 41.1455 cycles
LLC TOTAL     ACCESS:   23205671  HIT:   21754563  MISS:    1451108
LLC LOAD      ACCESS:   19943460  HIT:   19704015  MISS:     239445
LLC RFO       ACCESS:    1365326  HIT:     310560  MISS:    1054766
LLC PREFETCH  ACCESS:          0  HIT:          0  MISS:          0
LLC WRITEBACK ACCESS:    1896885  HIT:    1739988  MISS:     156897
LLC PREFETCH  REQUESTED:          0  ISSUED:          0  USEFUL:          0  USELESS:          0
LLC AVERAGE MISS LATENCY: 135.052 cycles
Major fault: 0 Minor fault: 6208
==============================
Perceptron RRIP Stats:
   Num Updates: 23507566
   Num Trains:  199826
==============================
perceptron #0: -2 2 -2 -4 0 0 -2 -2 0 0 -8 

perceptron #1: -1 3 -1 -3 -1 -5 -5 -3 3 -3 -7 

perceptron #2: 2 2 -2 0 -4 0 -4 -4 2 -2 -8 

perceptron #3: 3 1 -3 -3 -3 -1 -3 -1 1 1 -11 

perceptron #4: 0 0 -4 -2 -2 0 -4 0 0 -2 -8 

perceptron #5: 0 0 -2 0 2 -2 -4 -2 0 0 -8 

perceptron #6: -2 2 -4 -2 2 0 -4 -4 -2 -4 -12 

perceptron #7: 4 2 -2 0 0 0 -4 -4 -2 0 -8 


DRAM Statistics
 CHANNEL 0
 RQ ROW_BUFFER_HIT:     588069  ROW_BUFFER_MISS:     706132
 DBUS_CONGESTED:    1144351
 WQ ROW_BUFFER_HIT:     203785  ROW_BUFFER_MISS:     968747  FULL:          0

 AVG_CONGESTED_CYCLE: 6

CPU 0 Branch Prediction Accuracy: 97.9229% MPKI: 5.94568 Average ROB Occupancy at Mispredict: 44.1565

Branch types
NOT_BRANCH: 713754972 71.3755%
BRANCH_DIRECT_JUMP: 7870399 0.78704%
BRANCH_INDIRECT: 2818396 0.28184%
BRANCH_CONDITIONAL: 244384419 24.4384%
BRANCH_DIRECT_CALL: 9876498 0.98765%
BRANCH_INDIRECT_CALL: 5709278 0.570928%
BRANCH_RETURN: 15585777 1.55858%
BRANCH_OTHER: 0 0%

