
*** ChampSim Multicore Out-of-Order Simulator ***

Warmup Instructions: 100000000
Simulation Instructions: 1000000000
Number of CPUs: 1
LLC sets: 2048
LLC ways: 16
Off-chip DRAM Size: 4096 MB Channels: 1 Width: 64-bit Data Rate: 3200 MT/s

CPU 0 runs /scratch/user/kevin.weston/dpc3-traces/627.champsimtrace.xz
CPU 0 Bimodal branch predictor
Initialize RRPV
Initialize PRRIP state
Heartbeat CPU 0 instructions: 10000003 cycles: 3428435 heartbeat IPC: 2.91678 cumulative IPC: 2.91678 (Simulation time: 0 hr 0 min 17 sec) 
Heartbeat CPU 0 instructions: 20000001 cycles: 6665770 heartbeat IPC: 3.08896 cumulative IPC: 3.0004 (Simulation time: 0 hr 0 min 37 sec) 
Heartbeat CPU 0 instructions: 30000003 cycles: 9896576 heartbeat IPC: 3.0952 cumulative IPC: 3.03135 (Simulation time: 0 hr 0 min 57 sec) 
Heartbeat CPU 0 instructions: 40000003 cycles: 13066278 heartbeat IPC: 3.15487 cumulative IPC: 3.06132 (Simulation time: 0 hr 1 min 16 sec) 
Heartbeat CPU 0 instructions: 50000002 cycles: 16394270 heartbeat IPC: 3.00481 cumulative IPC: 3.04985 (Simulation time: 0 hr 1 min 36 sec) 
Heartbeat CPU 0 instructions: 60000003 cycles: 19755127 heartbeat IPC: 2.97543 cumulative IPC: 3.03719 (Simulation time: 0 hr 1 min 56 sec) 
Heartbeat CPU 0 instructions: 70000002 cycles: 23049380 heartbeat IPC: 3.03559 cumulative IPC: 3.03696 (Simulation time: 0 hr 2 min 15 sec) 
Heartbeat CPU 0 instructions: 80000002 cycles: 26412471 heartbeat IPC: 2.97346 cumulative IPC: 3.02887 (Simulation time: 0 hr 2 min 33 sec) 
Heartbeat CPU 0 instructions: 90000001 cycles: 29969669 heartbeat IPC: 2.8112 cumulative IPC: 3.00304 (Simulation time: 0 hr 2 min 52 sec) 
Heartbeat CPU 0 instructions: 100000001 cycles: 33466780 heartbeat IPC: 2.8595 cumulative IPC: 2.98804 (Simulation time: 0 hr 3 min 11 sec) 

Warmup complete CPU 0 instructions: 100000001 cycles: 33466780 (Simulation time: 0 hr 3 min 11 sec) 

Heartbeat CPU 0 instructions: 110000000 cycles: 55750946 heartbeat IPC: 0.448749 cumulative IPC: 0.448749 (Simulation time: 0 hr 3 min 41 sec) 
Heartbeat CPU 0 instructions: 120000002 cycles: 62419217 heartbeat IPC: 1.49964 cumulative IPC: 0.690788 (Simulation time: 0 hr 3 min 58 sec) 
Heartbeat CPU 0 instructions: 130000000 cycles: 68451753 heartbeat IPC: 1.65768 cumulative IPC: 0.857511 (Simulation time: 0 hr 4 min 14 sec) 
Heartbeat CPU 0 instructions: 140000001 cycles: 74469988 heartbeat IPC: 1.66162 cumulative IPC: 0.975533 (Simulation time: 0 hr 4 min 31 sec) 
Heartbeat CPU 0 instructions: 150000001 cycles: 82613467 heartbeat IPC: 1.22798 cumulative IPC: 1.01736 (Simulation time: 0 hr 4 min 45 sec) 
Heartbeat CPU 0 instructions: 160000001 cycles: 91598123 heartbeat IPC: 1.11301 cumulative IPC: 1.03215 (Simulation time: 0 hr 5 min 0 sec) 
Heartbeat CPU 0 instructions: 170000001 cycles: 100320007 heartbeat IPC: 1.14654 cumulative IPC: 1.04707 (Simulation time: 0 hr 5 min 15 sec) 
Heartbeat CPU 0 instructions: 180000001 cycles: 108724404 heartbeat IPC: 1.18985 cumulative IPC: 1.06302 (Simulation time: 0 hr 5 min 29 sec) 
Heartbeat CPU 0 instructions: 190000000 cycles: 117602196 heartbeat IPC: 1.12641 cumulative IPC: 1.0697 (Simulation time: 0 hr 5 min 46 sec) 
Heartbeat CPU 0 instructions: 200000003 cycles: 127497769 heartbeat IPC: 1.01055 cumulative IPC: 1.06348 (Simulation time: 0 hr 6 min 1 sec) 
Heartbeat CPU 0 instructions: 210000000 cycles: 150603681 heartbeat IPC: 0.43279 cumulative IPC: 0.939072 (Simulation time: 0 hr 6 min 31 sec) 
Heartbeat CPU 0 instructions: 220000000 cycles: 157710167 heartbeat IPC: 1.40717 cumulative IPC: 0.965846 (Simulation time: 0 hr 6 min 48 sec) 
Heartbeat CPU 0 instructions: 230000003 cycles: 163747416 heartbeat IPC: 1.65638 cumulative IPC: 0.997846 (Simulation time: 0 hr 7 min 5 sec) 
Heartbeat CPU 0 instructions: 240000000 cycles: 169727376 heartbeat IPC: 1.67225 cumulative IPC: 1.02744 (Simulation time: 0 hr 7 min 21 sec) 
Heartbeat CPU 0 instructions: 250000000 cycles: 177062388 heartbeat IPC: 1.36332 cumulative IPC: 1.0446 (Simulation time: 0 hr 7 min 37 sec) 
Heartbeat CPU 0 instructions: 260000002 cycles: 185897005 heartbeat IPC: 1.13191 cumulative IPC: 1.04966 (Simulation time: 0 hr 7 min 52 sec) 
Heartbeat CPU 0 instructions: 270000000 cycles: 194631067 heartbeat IPC: 1.14494 cumulative IPC: 1.05482 (Simulation time: 0 hr 8 min 7 sec) 
Heartbeat CPU 0 instructions: 280000002 cycles: 202216353 heartbeat IPC: 1.31834 cumulative IPC: 1.06667 (Simulation time: 0 hr 8 min 22 sec) 
Heartbeat CPU 0 instructions: 290000003 cycles: 211600819 heartbeat IPC: 1.06559 cumulative IPC: 1.06661 (Simulation time: 0 hr 8 min 38 sec) 
Heartbeat CPU 0 instructions: 300000003 cycles: 221357356 heartbeat IPC: 1.02495 cumulative IPC: 1.06445 (Simulation time: 0 hr 8 min 53 sec) 
Heartbeat CPU 0 instructions: 310000000 cycles: 244383640 heartbeat IPC: 0.434286 cumulative IPC: 0.995653 (Simulation time: 0 hr 9 min 25 sec) 
Heartbeat CPU 0 instructions: 320000000 cycles: 252588129 heartbeat IPC: 1.21885 cumulative IPC: 1.00401 (Simulation time: 0 hr 9 min 41 sec) 
Heartbeat CPU 0 instructions: 330000000 cycles: 258660989 heartbeat IPC: 1.64667 cumulative IPC: 1.02134 (Simulation time: 0 hr 9 min 58 sec) 
Heartbeat CPU 0 instructions: 340000000 cycles: 264624188 heartbeat IPC: 1.67695 cumulative IPC: 1.03825 (Simulation time: 0 hr 10 min 15 sec) 
Heartbeat CPU 0 instructions: 350000000 cycles: 271062450 heartbeat IPC: 1.55321 cumulative IPC: 1.05221 (Simulation time: 0 hr 10 min 31 sec) 
Heartbeat CPU 0 instructions: 360000000 cycles: 279003633 heartbeat IPC: 1.25926 cumulative IPC: 1.0589 (Simulation time: 0 hr 10 min 46 sec) 
Heartbeat CPU 0 instructions: 370000000 cycles: 287971778 heartbeat IPC: 1.11506 cumulative IPC: 1.06088 (Simulation time: 0 hr 11 min 1 sec) 
Heartbeat CPU 0 instructions: 380000000 cycles: 296243222 heartbeat IPC: 1.20898 cumulative IPC: 1.06554 (Simulation time: 0 hr 11 min 16 sec) 
Heartbeat CPU 0 instructions: 390000000 cycles: 304977845 heartbeat IPC: 1.14487 cumulative IPC: 1.0681 (Simulation time: 0 hr 11 min 31 sec) 
Heartbeat CPU 0 instructions: 400000000 cycles: 313666030 heartbeat IPC: 1.15099 cumulative IPC: 1.07067 (Simulation time: 0 hr 11 min 46 sec) 
Heartbeat CPU 0 instructions: 410000001 cycles: 326163417 heartbeat IPC: 0.800167 cumulative IPC: 1.05912 (Simulation time: 0 hr 12 min 5 sec) 
Heartbeat CPU 0 instructions: 420000001 cycles: 346738577 heartbeat IPC: 0.486023 cumulative IPC: 1.02148 (Simulation time: 0 hr 12 min 32 sec) 
Heartbeat CPU 0 instructions: 430000003 cycles: 353200673 heartbeat IPC: 1.54749 cumulative IPC: 1.03211 (Simulation time: 0 hr 12 min 50 sec) 
Heartbeat CPU 0 instructions: 440000000 cycles: 359209056 heartbeat IPC: 1.66434 cumulative IPC: 1.04377 (Simulation time: 0 hr 13 min 6 sec) 
Heartbeat CPU 0 instructions: 450000000 cycles: 365289822 heartbeat IPC: 1.64453 cumulative IPC: 1.05478 (Simulation time: 0 hr 13 min 23 sec) 
Heartbeat CPU 0 instructions: 460000000 cycles: 373143497 heartbeat IPC: 1.27329 cumulative IPC: 1.05983 (Simulation time: 0 hr 13 min 38 sec) 
Heartbeat CPU 0 instructions: 470000001 cycles: 382004009 heartbeat IPC: 1.1286 cumulative IPC: 1.06158 (Simulation time: 0 hr 13 min 53 sec) 
Heartbeat CPU 0 instructions: 480000001 cycles: 390499383 heartbeat IPC: 1.17711 cumulative IPC: 1.06433 (Simulation time: 0 hr 14 min 7 sec) 
Heartbeat CPU 0 instructions: 490000000 cycles: 399008762 heartbeat IPC: 1.17517 cumulative IPC: 1.06691 (Simulation time: 0 hr 14 min 22 sec) 
Heartbeat CPU 0 instructions: 500000000 cycles: 407757861 heartbeat IPC: 1.14297 cumulative IPC: 1.06869 (Simulation time: 0 hr 14 min 38 sec) 
Heartbeat CPU 0 instructions: 510000001 cycles: 418112562 heartbeat IPC: 0.965745 cumulative IPC: 1.06592 (Simulation time: 0 hr 14 min 54 sec) 
Heartbeat CPU 0 instructions: 520000003 cycles: 440899058 heartbeat IPC: 0.438857 cumulative IPC: 1.03085 (Simulation time: 0 hr 15 min 24 sec) 
Heartbeat CPU 0 instructions: 530000001 cycles: 447365475 heartbeat IPC: 1.54645 cumulative IPC: 1.0389 (Simulation time: 0 hr 15 min 41 sec) 
Heartbeat CPU 0 instructions: 540000000 cycles: 453395033 heartbeat IPC: 1.6585 cumulative IPC: 1.0478 (Simulation time: 0 hr 15 min 58 sec) 
Heartbeat CPU 0 instructions: 550000000 cycles: 459486881 heartbeat IPC: 1.64154 cumulative IPC: 1.05629 (Simulation time: 0 hr 16 min 14 sec) 
Heartbeat CPU 0 instructions: 560000000 cycles: 467005074 heartbeat IPC: 1.33011 cumulative IPC: 1.06104 (Simulation time: 0 hr 16 min 29 sec) 
Heartbeat CPU 0 instructions: 570000002 cycles: 475571539 heartbeat IPC: 1.16734 cumulative IPC: 1.0631 (Simulation time: 0 hr 16 min 43 sec) 
Heartbeat CPU 0 instructions: 580000001 cycles: 484157430 heartbeat IPC: 1.1647 cumulative IPC: 1.06503 (Simulation time: 0 hr 16 min 58 sec) 
Heartbeat CPU 0 instructions: 590000000 cycles: 492626950 heartbeat IPC: 1.1807 cumulative IPC: 1.06717 (Simulation time: 0 hr 17 min 13 sec) 
Heartbeat CPU 0 instructions: 600000002 cycles: 501618731 heartbeat IPC: 1.11213 cumulative IPC: 1.06803 (Simulation time: 0 hr 17 min 28 sec) 
Heartbeat CPU 0 instructions: 610000000 cycles: 511631419 heartbeat IPC: 0.998733 cumulative IPC: 1.06658 (Simulation time: 0 hr 17 min 45 sec) 
Heartbeat CPU 0 instructions: 620000002 cycles: 534455550 heartbeat IPC: 0.438133 cumulative IPC: 1.03795 (Simulation time: 0 hr 18 min 14 sec) 
Heartbeat CPU 0 instructions: 630000000 cycles: 541100580 heartbeat IPC: 1.50488 cumulative IPC: 1.04406 (Simulation time: 0 hr 18 min 31 sec) 
Heartbeat CPU 0 instructions: 640000002 cycles: 547146554 heartbeat IPC: 1.65399 cumulative IPC: 1.05124 (Simulation time: 0 hr 18 min 48 sec) 
Heartbeat CPU 0 instructions: 650000000 cycles: 553899640 heartbeat IPC: 1.4808 cumulative IPC: 1.05681 (Simulation time: 0 hr 19 min 4 sec) 
Heartbeat CPU 0 instructions: 660000000 cycles: 562788004 heartbeat IPC: 1.12507 cumulative IPC: 1.05796 (Simulation time: 0 hr 19 min 18 sec) 
Heartbeat CPU 0 instructions: 670000000 cycles: 571785931 heartbeat IPC: 1.11137 cumulative IPC: 1.05885 (Simulation time: 0 hr 19 min 33 sec) 
Heartbeat CPU 0 instructions: 680000000 cycles: 579734477 heartbeat IPC: 1.25809 cumulative IPC: 1.06175 (Simulation time: 0 hr 19 min 47 sec) 
Heartbeat CPU 0 instructions: 690000000 cycles: 588802686 heartbeat IPC: 1.10275 cumulative IPC: 1.06242 (Simulation time: 0 hr 20 min 3 sec) 
Heartbeat CPU 0 instructions: 700000001 cycles: 598734791 heartbeat IPC: 1.00684 cumulative IPC: 1.06144 (Simulation time: 0 hr 20 min 19 sec) 
Heartbeat CPU 0 instructions: 710000001 cycles: 621818817 heartbeat IPC: 0.4332 cumulative IPC: 1.03679 (Simulation time: 0 hr 20 min 49 sec) 
Heartbeat CPU 0 instructions: 720000003 cycles: 628853646 heartbeat IPC: 1.4215 cumulative IPC: 1.04134 (Simulation time: 0 hr 21 min 6 sec) 
Heartbeat CPU 0 instructions: 730000000 cycles: 635008767 heartbeat IPC: 1.62466 cumulative IPC: 1.04731 (Simulation time: 0 hr 21 min 23 sec) 
Heartbeat CPU 0 instructions: 740000002 cycles: 642106688 heartbeat IPC: 1.40886 cumulative IPC: 1.05152 (Simulation time: 0 hr 21 min 38 sec) 
Heartbeat CPU 0 instructions: 750000002 cycles: 650543277 heartbeat IPC: 1.18531 cumulative IPC: 1.05335 (Simulation time: 0 hr 21 min 53 sec) 
Heartbeat CPU 0 instructions: 760000000 cycles: 659454689 heartbeat IPC: 1.12216 cumulative IPC: 1.05433 (Simulation time: 0 hr 22 min 7 sec) 
Heartbeat CPU 0 instructions: 770000000 cycles: 667424216 heartbeat IPC: 1.25478 cumulative IPC: 1.05685 (Simulation time: 0 hr 22 min 22 sec) 
Heartbeat CPU 0 instructions: 780000003 cycles: 676571703 heartbeat IPC: 1.0932 cumulative IPC: 1.05737 (Simulation time: 0 hr 22 min 38 sec) 
Heartbeat CPU 0 instructions: 790000000 cycles: 686302802 heartbeat IPC: 1.02763 cumulative IPC: 1.05693 (Simulation time: 0 hr 22 min 53 sec) 
Heartbeat CPU 0 instructions: 800000000 cycles: 709500520 heartbeat IPC: 0.431077 cumulative IPC: 1.03545 (Simulation time: 0 hr 23 min 24 sec) 
Heartbeat CPU 0 instructions: 810000003 cycles: 716742746 heartbeat IPC: 1.38079 cumulative IPC: 1.03911 (Simulation time: 0 hr 23 min 40 sec) 
Heartbeat CPU 0 instructions: 820000002 cycles: 722796742 heartbeat IPC: 1.6518 cumulative IPC: 1.04449 (Simulation time: 0 hr 23 min 58 sec) 
Heartbeat CPU 0 instructions: 830000001 cycles: 730270389 heartbeat IPC: 1.33803 cumulative IPC: 1.04764 (Simulation time: 0 hr 24 min 14 sec) 
Heartbeat CPU 0 instructions: 840000000 cycles: 738139730 heartbeat IPC: 1.27075 cumulative IPC: 1.05013 (Simulation time: 0 hr 24 min 29 sec) 
Heartbeat CPU 0 instructions: 850000001 cycles: 747024988 heartbeat IPC: 1.12546 cumulative IPC: 1.05107 (Simulation time: 0 hr 24 min 44 sec) 
Heartbeat CPU 0 instructions: 860000002 cycles: 754694043 heartbeat IPC: 1.30394 cumulative IPC: 1.05376 (Simulation time: 0 hr 24 min 59 sec) 
Heartbeat CPU 0 instructions: 870000000 cycles: 764092284 heartbeat IPC: 1.06403 cumulative IPC: 1.05389 (Simulation time: 0 hr 25 min 14 sec) 
Heartbeat CPU 0 instructions: 880000000 cycles: 773940149 heartbeat IPC: 1.01545 cumulative IPC: 1.05338 (Simulation time: 0 hr 25 min 30 sec) 
Heartbeat CPU 0 instructions: 890000000 cycles: 796991337 heartbeat IPC: 0.433817 cumulative IPC: 1.03468 (Simulation time: 0 hr 26 min 1 sec) 
Heartbeat CPU 0 instructions: 900000002 cycles: 804465868 heartbeat IPC: 1.33788 cumulative IPC: 1.03761 (Simulation time: 0 hr 26 min 18 sec) 
Heartbeat CPU 0 instructions: 910000000 cycles: 810511741 heartbeat IPC: 1.65402 cumulative IPC: 1.04241 (Simulation time: 0 hr 26 min 35 sec) 
Heartbeat CPU 0 instructions: 920000001 cycles: 816505719 heartbeat IPC: 1.66834 cumulative IPC: 1.0472 (Simulation time: 0 hr 26 min 51 sec) 
Heartbeat CPU 0 instructions: 930000000 cycles: 824609448 heartbeat IPC: 1.234 cumulative IPC: 1.04912 (Simulation time: 0 hr 27 min 6 sec) 
Heartbeat CPU 0 instructions: 940000000 cycles: 833621490 heartbeat IPC: 1.10963 cumulative IPC: 1.0498 (Simulation time: 0 hr 27 min 21 sec) 
Heartbeat CPU 0 instructions: 950000003 cycles: 842166052 heartbeat IPC: 1.17034 cumulative IPC: 1.05107 (Simulation time: 0 hr 27 min 36 sec) 
Heartbeat CPU 0 instructions: 960000001 cycles: 850536323 heartbeat IPC: 1.1947 cumulative IPC: 1.05254 (Simulation time: 0 hr 27 min 50 sec) 
Heartbeat CPU 0 instructions: 970000000 cycles: 859381180 heartbeat IPC: 1.1306 cumulative IPC: 1.05338 (Simulation time: 0 hr 28 min 7 sec) 
Heartbeat CPU 0 instructions: 980000002 cycles: 869177025 heartbeat IPC: 1.02084 cumulative IPC: 1.053 (Simulation time: 0 hr 28 min 22 sec) 
Heartbeat CPU 0 instructions: 990000000 cycles: 892381099 heartbeat IPC: 0.430959 cumulative IPC: 1.03619 (Simulation time: 0 hr 28 min 53 sec) 
Heartbeat CPU 0 instructions: 1000000000 cycles: 899149147 heartbeat IPC: 1.47753 cumulative IPC: 1.03964 (Simulation time: 0 hr 29 min 10 sec) 
Heartbeat CPU 0 instructions: 1010000000 cycles: 905177099 heartbeat IPC: 1.65894 cumulative IPC: 1.04392 (Simulation time: 0 hr 29 min 27 sec) 
Heartbeat CPU 0 instructions: 1020000000 cycles: 911378140 heartbeat IPC: 1.61263 cumulative IPC: 1.04794 (Simulation time: 0 hr 29 min 43 sec) 
Heartbeat CPU 0 instructions: 1030000002 cycles: 920159936 heartbeat IPC: 1.13872 cumulative IPC: 1.04884 (Simulation time: 0 hr 29 min 57 sec) 
Heartbeat CPU 0 instructions: 1040000000 cycles: 928046794 heartbeat IPC: 1.26793 cumulative IPC: 1.05077 (Simulation time: 0 hr 30 min 12 sec) 
Heartbeat CPU 0 instructions: 1050000001 cycles: 936038632 heartbeat IPC: 1.25128 cumulative IPC: 1.05255 (Simulation time: 0 hr 30 min 27 sec) 
Heartbeat CPU 0 instructions: 1060000001 cycles: 945139738 heartbeat IPC: 1.09877 cumulative IPC: 1.05301 (Simulation time: 0 hr 30 min 42 sec) 
Heartbeat CPU 0 instructions: 1070000002 cycles: 954070460 heartbeat IPC: 1.11973 cumulative IPC: 1.05366 (Simulation time: 0 hr 30 min 57 sec) 
Heartbeat CPU 0 instructions: 1080000003 cycles: 974223802 heartbeat IPC: 0.496196 cumulative IPC: 1.04171 (Simulation time: 0 hr 31 min 26 sec) 
Heartbeat CPU 0 instructions: 1090000003 cycles: 986670918 heartbeat IPC: 0.803399 cumulative IPC: 1.0386 (Simulation time: 0 hr 31 min 44 sec) 
Heartbeat CPU 0 instructions: 1100000000 cycles: 992813061 heartbeat IPC: 1.6281 cumulative IPC: 1.04238 (Simulation time: 0 hr 32 min 1 sec) 
Finished CPU 0 instructions: 1000000003 cycles: 959346289 cumulative IPC: 1.04238 (Simulation time: 0 hr 32 min 1 sec) 

ChampSim completed all CPUs

Region of Interest Statistics

CPU 0 cumulative IPC: 1.04238 instructions: 1000000003 cycles: 959346289
L1D TOTAL     ACCESS:  200947364  HIT:  191347173  MISS:    9600191
L1D LOAD      ACCESS:  118019071  HIT:  114948750  MISS:    3070321
L1D RFO       ACCESS:   82928293  HIT:   76398423  MISS:    6529870
L1D PREFETCH  ACCESS:          0  HIT:          0  MISS:          0
L1D WRITEBACK ACCESS:          0  HIT:          0  MISS:          0
L1D PREFETCH  REQUESTED:          0  ISSUED:          0  USEFUL:          0  USELESS:          0
L1D AVERAGE MISS LATENCY: 342.508 cycles
L1I TOTAL     ACCESS:  167154984  HIT:  166746777  MISS:     408207
L1I LOAD      ACCESS:  167154984  HIT:  166746777  MISS:     408207
L1I RFO       ACCESS:          0  HIT:          0  MISS:          0
L1I PREFETCH  ACCESS:          0  HIT:          0  MISS:          0
L1I WRITEBACK ACCESS:          0  HIT:          0  MISS:          0
L1I PREFETCH  REQUESTED:          0  ISSUED:          0  USEFUL:          0  USELESS:          0
L1I AVERAGE MISS LATENCY: 68.5363 cycles
L2C TOTAL     ACCESS:   16939288  HIT:   10390263  MISS:    6549025
L2C LOAD      ACCESS:    3478282  HIT:    2450048  MISS:    1028234
L2C RFO       ACCESS:    6529518  HIT:    1016299  MISS:    5513219
L2C PREFETCH  ACCESS:          0  HIT:          0  MISS:          0
L2C WRITEBACK ACCESS:    6931488  HIT:    6923916  MISS:       7572
L2C PREFETCH  REQUESTED:          0  ISSUED:          0  USEFUL:          0  USELESS:          0
L2C AVERAGE MISS LATENCY: 482.136 cycles
LLC TOTAL     ACCESS:   12226713  HIT:    1670129  MISS:   10556584
LLC LOAD      ACCESS:    1028232  HIT:     634609  MISS:     393623
LLC RFO       ACCESS:    5513216  HIT:     367897  MISS:    5145319
LLC PREFETCH  ACCESS:          0  HIT:          0  MISS:          0
LLC WRITEBACK ACCESS:    5685265  HIT:     667623  MISS:    5017642
LLC PREFETCH  REQUESTED:          0  ISSUED:          0  USEFUL:          0  USELESS:          0
LLC AVERAGE MISS LATENCY: 278.474 cycles
Major fault: 0 Minor fault: 7146
==============================
Perceptron RRIP Stats:
   Num Updates: 6818603
   Num Trains:  117594
==============================
perceptron #0: 4 4 6 4 8 2 0 6 0 2 0 -4 -2 -2 -8 -4 2 -2 2 0 0 2 2 2 2 2 -2 

perceptron #1: 4 6 8 2 8 0 0 0 2 2 -4 -6 4 0 -4 2 0 0 2 0 0 2 2 2 2 -2 -2 

perceptron #2: 4 8 8 8 8 0 -2 2 2 -2 -2 -2 0 -4 0 -2 2 0 0 -2 0 2 2 2 -2 2 -2 

perceptron #3: 4 6 8 10 6 -4 2 4 4 2 -4 -2 2 -4 0 -4 0 -2 -2 2 0 2 2 2 -2 -2 -2 

perceptron #4: 5 5 5 7 5 -3 -1 3 3 5 -7 -1 1 -3 -5 -3 7 -1 1 -1 1 1 1 -1 1 1 -1 

perceptron #5: 5 5 7 5 9 1 -1 3 1 3 -1 1 -3 -5 -3 -5 5 1 3 3 -1 3 3 -3 3 -3 -3 

perceptron #6: 9 9 7 5 5 -5 -3 5 1 3 -5 -1 3 -5 -5 1 -1 3 5 -3 -3 1 1 -1 -1 1 -1 

perceptron #7: 6 4 8 6 10 0 -2 6 0 0 -2 -4 -2 -4 0 -2 2 2 4 -2 0 2 2 -2 -2 -2 -2 

perceptron #8: 5 11 11 7 5 3 1 5 5 3 -5 -1 5 -11 -1 3 3 3 -1 5 -1 -1 1 -1 -1 -1 1 

perceptron #9: 7 3 9 3 7 -5 -3 1 1 5 -5 -3 1 -5 -5 -1 1 3 -1 -1 -1 3 -3 3 3 -3 -3 

perceptron #10: 2 6 8 2 4 -2 0 2 0 10 -6 2 2 -6 -4 2 2 2 0 -6 -2 4 -4 4 -4 4 -4 

perceptron #11: 4 12 8 6 6 0 2 0 2 2 -2 -2 4 -8 0 0 2 -2 0 -4 -2 2 -2 2 -2 -2 -2 

perceptron #12: 2 6 6 6 2 2 0 2 0 4 -2 0 2 -8 -4 -2 -2 0 0 -2 -2 2 -2 -2 2 2 -2 

perceptron #13: 4 8 10 4 10 2 2 2 0 6 -6 -2 8 -6 -2 2 -4 -2 0 4 0 2 -2 -2 2 -2 -2 

perceptron #14: 3 9 5 3 5 3 1 -1 1 7 -5 -1 5 -5 1 -1 -5 -1 1 -1 -1 3 -3 -3 -3 3 -3 

perceptron #15: 5 5 9 5 3 1 1 -1 3 3 -3 -1 1 -5 -3 1 -3 -1 1 1 1 3 -3 -3 -3 -3 -3 

perceptron #16: 9 7 9 5 7 -1 1 1 5 3 -1 3 -1 -3 -1 -3 -3 -3 1 -5 1 -1 1 1 1 1 -1 

perceptron #17: 7 13 9 5 7 1 1 -1 3 3 -3 3 1 -3 -3 -1 3 -1 1 -3 1 -1 1 1 1 -1 -1 

perceptron #18: 6 6 6 4 6 2 0 2 0 2 -2 -2 2 -4 2 0 -2 -4 4 -2 0 -2 2 2 -2 2 -2 

perceptron #19: 6 10 6 6 4 4 -2 4 2 2 0 -4 2 -2 0 2 0 0 -2 -4 -2 -2 2 2 -2 -2 -2 

perceptron #20: 7 9 9 7 3 3 5 -1 3 5 -3 -3 5 1 -7 5 -3 -3 3 1 1 -3 3 -3 3 3 -3 

perceptron #21: 4 12 8 4 4 4 0 2 2 4 0 -2 4 -2 0 0 0 0 0 -6 0 -2 2 -2 2 -2 -2 

perceptron #22: 3 11 7 9 1 1 -1 3 1 1 -5 1 7 -7 -3 1 -3 5 -1 -3 9 -1 1 -1 -1 1 -1 

perceptron #23: 8 8 8 4 2 0 2 -2 4 4 -6 -2 2 -2 -2 2 -2 -2 2 2 0 0 0 0 0 0 0 

perceptron #24: 4 12 8 4 6 2 4 4 0 4 -2 -2 2 -4 2 0 -2 0 0 -4 -2 -2 -2 2 2 2 -2 

perceptron #25: 7 7 7 5 7 1 -1 1 1 5 -1 -1 1 -5 -3 -3 -1 1 1 -3 1 -3 -3 3 3 -3 -3 

perceptron #26: 5 5 7 7 5 -5 -3 3 3 3 -3 5 3 -9 -5 -1 -1 -1 1 -1 1 -3 -3 3 -3 3 -3 

perceptron #27: 4 6 6 6 4 0 -2 4 0 6 -4 -4 0 -4 -2 -2 0 -2 2 0 -4 -2 -2 2 -2 -2 -2 

perceptron #28: 8 10 4 8 2 4 0 2 6 2 -2 -2 4 -4 0 0 4 0 6 0 -2 -2 -2 -2 2 2 -2 

perceptron #29: 2 4 6 2 6 0 -2 2 2 2 -2 -2 2 -4 2 -2 4 -4 0 0 -2 -2 -2 -2 2 -2 -2 

perceptron #30: 3 5 9 3 7 1 1 5 -3 9 -3 -3 3 -7 1 -1 -1 -3 1 -1 -1 -1 -1 -1 -1 1 -1 

perceptron #31: 2 6 8 6 8 2 0 2 2 4 -4 0 6 -6 0 -2 0 2 2 -2 2 -2 -2 -2 -2 -2 -2 


DRAM Statistics
 CHANNEL 0
 RQ ROW_BUFFER_HIT:    1862295  ROW_BUFFER_MISS:    3676627
 DBUS_CONGESTED:    9084712
 WQ ROW_BUFFER_HIT:    1609381  ROW_BUFFER_MISS:    3590944  FULL:    4153285

 AVG_CONGESTED_CYCLE: 6

CPU 0 Branch Prediction Accuracy: 93.7395% MPKI: 8.37522 Average ROB Occupancy at Mispredict: 35.2432

Branch types
NOT_BRANCH: 866220388 86.622%
BRANCH_DIRECT_JUMP: 7799639 0.779964%
BRANCH_INDIRECT: 50546 0.0050546%
BRANCH_CONDITIONAL: 115170924 11.5171%
BRANCH_DIRECT_CALL: 5379116 0.537912%
BRANCH_INDIRECT_CALL: 0 0%
BRANCH_RETURN: 5379110 0.537911%
BRANCH_OTHER: 0 0%

