
*** ChampSim Multicore Out-of-Order Simulator ***

Warmup Instructions: 100000000
Simulation Instructions: 1000000000
Number of CPUs: 1
LLC sets: 2048
LLC ways: 16
Off-chip DRAM Size: 4096 MB Channels: 1 Width: 64-bit Data Rate: 3200 MT/s

CPU 0 runs /scratch/user/kevin.weston/dpc3-traces/627.champsimtrace.xz
CPU 0 Bimodal branch predictor
Initialize RRPV
Initialize PRRIP state
Heartbeat CPU 0 instructions: 10000003 cycles: 3428435 heartbeat IPC: 2.91678 cumulative IPC: 2.91678 (Simulation time: 0 hr 0 min 18 sec) 
Heartbeat CPU 0 instructions: 20000001 cycles: 6665763 heartbeat IPC: 3.08897 cumulative IPC: 3.00041 (Simulation time: 0 hr 0 min 39 sec) 
Heartbeat CPU 0 instructions: 30000003 cycles: 9896565 heartbeat IPC: 3.09521 cumulative IPC: 3.03136 (Simulation time: 0 hr 0 min 59 sec) 
Heartbeat CPU 0 instructions: 40000003 cycles: 13066259 heartbeat IPC: 3.15488 cumulative IPC: 3.06132 (Simulation time: 0 hr 1 min 20 sec) 
Heartbeat CPU 0 instructions: 50000002 cycles: 16394250 heartbeat IPC: 3.00482 cumulative IPC: 3.04985 (Simulation time: 0 hr 1 min 40 sec) 
Heartbeat CPU 0 instructions: 60000003 cycles: 19755105 heartbeat IPC: 2.97543 cumulative IPC: 3.03719 (Simulation time: 0 hr 2 min 2 sec) 
Heartbeat CPU 0 instructions: 70000002 cycles: 23049361 heartbeat IPC: 3.03559 cumulative IPC: 3.03696 (Simulation time: 0 hr 2 min 22 sec) 
Heartbeat CPU 0 instructions: 80000002 cycles: 26412442 heartbeat IPC: 2.97346 cumulative IPC: 3.02888 (Simulation time: 0 hr 2 min 42 sec) 
Heartbeat CPU 0 instructions: 90000001 cycles: 29969637 heartbeat IPC: 2.8112 cumulative IPC: 3.00304 (Simulation time: 0 hr 3 min 2 sec) 
Heartbeat CPU 0 instructions: 100000001 cycles: 33466762 heartbeat IPC: 2.85949 cumulative IPC: 2.98804 (Simulation time: 0 hr 3 min 23 sec) 

Warmup complete CPU 0 instructions: 100000001 cycles: 33466762 (Simulation time: 0 hr 3 min 23 sec) 

Heartbeat CPU 0 instructions: 110000000 cycles: 55780937 heartbeat IPC: 0.448146 cumulative IPC: 0.448146 (Simulation time: 0 hr 3 min 53 sec) 
Heartbeat CPU 0 instructions: 120000002 cycles: 62449138 heartbeat IPC: 1.49966 cumulative IPC: 0.690075 (Simulation time: 0 hr 4 min 12 sec) 
Heartbeat CPU 0 instructions: 130000000 cycles: 68479699 heartbeat IPC: 1.65822 cumulative IPC: 0.856826 (Simulation time: 0 hr 4 min 30 sec) 
Heartbeat CPU 0 instructions: 140000001 cycles: 74493753 heartbeat IPC: 1.66277 cumulative IPC: 0.974968 (Simulation time: 0 hr 4 min 47 sec) 
Heartbeat CPU 0 instructions: 150000001 cycles: 82625098 heartbeat IPC: 1.22981 cumulative IPC: 1.01712 (Simulation time: 0 hr 5 min 3 sec) 
Heartbeat CPU 0 instructions: 160000001 cycles: 91605691 heartbeat IPC: 1.11351 cumulative IPC: 1.03201 (Simulation time: 0 hr 5 min 18 sec) 
Heartbeat CPU 0 instructions: 170000001 cycles: 100326472 heartbeat IPC: 1.14669 cumulative IPC: 1.04697 (Simulation time: 0 hr 5 min 34 sec) 
Heartbeat CPU 0 instructions: 180000001 cycles: 108721970 heartbeat IPC: 1.19111 cumulative IPC: 1.06305 (Simulation time: 0 hr 5 min 50 sec) 
Heartbeat CPU 0 instructions: 190000000 cycles: 117598204 heartbeat IPC: 1.1266 cumulative IPC: 1.06975 (Simulation time: 0 hr 6 min 7 sec) 
Heartbeat CPU 0 instructions: 200000003 cycles: 127466708 heartbeat IPC: 1.01333 cumulative IPC: 1.06383 (Simulation time: 0 hr 6 min 23 sec) 
Heartbeat CPU 0 instructions: 210000000 cycles: 150580638 heartbeat IPC: 0.432639 cumulative IPC: 0.939257 (Simulation time: 0 hr 6 min 54 sec) 
Heartbeat CPU 0 instructions: 220000000 cycles: 157692382 heartbeat IPC: 1.40612 cumulative IPC: 0.965984 (Simulation time: 0 hr 7 min 12 sec) 
Heartbeat CPU 0 instructions: 230000003 cycles: 163736909 heartbeat IPC: 1.65439 cumulative IPC: 0.997926 (Simulation time: 0 hr 7 min 30 sec) 
Heartbeat CPU 0 instructions: 240000000 cycles: 169729089 heartbeat IPC: 1.66884 cumulative IPC: 1.02743 (Simulation time: 0 hr 7 min 48 sec) 
Heartbeat CPU 0 instructions: 250000000 cycles: 177083975 heartbeat IPC: 1.35964 cumulative IPC: 1.04444 (Simulation time: 0 hr 8 min 4 sec) 
Heartbeat CPU 0 instructions: 260000002 cycles: 185920998 heartbeat IPC: 1.1316 cumulative IPC: 1.0495 (Simulation time: 0 hr 8 min 19 sec) 
Heartbeat CPU 0 instructions: 270000000 cycles: 194655604 heartbeat IPC: 1.14487 cumulative IPC: 1.05466 (Simulation time: 0 hr 8 min 35 sec) 
Heartbeat CPU 0 instructions: 280000002 cycles: 202236050 heartbeat IPC: 1.31918 cumulative IPC: 1.06654 (Simulation time: 0 hr 8 min 51 sec) 
Heartbeat CPU 0 instructions: 290000003 cycles: 211618849 heartbeat IPC: 1.06578 cumulative IPC: 1.0665 (Simulation time: 0 hr 9 min 7 sec) 
Heartbeat CPU 0 instructions: 300000003 cycles: 221375098 heartbeat IPC: 1.02498 cumulative IPC: 1.06435 (Simulation time: 0 hr 9 min 24 sec) 
Heartbeat CPU 0 instructions: 310000000 cycles: 244381139 heartbeat IPC: 0.434668 cumulative IPC: 0.995665 (Simulation time: 0 hr 9 min 56 sec) 
Heartbeat CPU 0 instructions: 320000000 cycles: 252586832 heartbeat IPC: 1.21867 cumulative IPC: 1.00402 (Simulation time: 0 hr 10 min 12 sec) 
Heartbeat CPU 0 instructions: 330000000 cycles: 258662878 heartbeat IPC: 1.64581 cumulative IPC: 1.02133 (Simulation time: 0 hr 10 min 31 sec) 
Heartbeat CPU 0 instructions: 340000000 cycles: 264627380 heartbeat IPC: 1.67659 cumulative IPC: 1.03824 (Simulation time: 0 hr 10 min 48 sec) 
Heartbeat CPU 0 instructions: 350000000 cycles: 271068763 heartbeat IPC: 1.55246 cumulative IPC: 1.05218 (Simulation time: 0 hr 11 min 5 sec) 
Heartbeat CPU 0 instructions: 360000000 cycles: 279006537 heartbeat IPC: 1.2598 cumulative IPC: 1.05889 (Simulation time: 0 hr 11 min 20 sec) 
Heartbeat CPU 0 instructions: 370000000 cycles: 287974388 heartbeat IPC: 1.11509 cumulative IPC: 1.06087 (Simulation time: 0 hr 11 min 36 sec) 
Heartbeat CPU 0 instructions: 380000000 cycles: 296245167 heartbeat IPC: 1.20908 cumulative IPC: 1.06554 (Simulation time: 0 hr 11 min 52 sec) 
Heartbeat CPU 0 instructions: 390000000 cycles: 304972841 heartbeat IPC: 1.14578 cumulative IPC: 1.06812 (Simulation time: 0 hr 12 min 8 sec) 
Heartbeat CPU 0 instructions: 400000000 cycles: 313661766 heartbeat IPC: 1.15089 cumulative IPC: 1.07068 (Simulation time: 0 hr 12 min 24 sec) 
Heartbeat CPU 0 instructions: 410000001 cycles: 326157301 heartbeat IPC: 0.800286 cumulative IPC: 1.05914 (Simulation time: 0 hr 12 min 44 sec) 
Heartbeat CPU 0 instructions: 420000001 cycles: 346727423 heartbeat IPC: 0.486142 cumulative IPC: 1.02151 (Simulation time: 0 hr 13 min 12 sec) 
Heartbeat CPU 0 instructions: 430000003 cycles: 353189020 heartbeat IPC: 1.54761 cumulative IPC: 1.03215 (Simulation time: 0 hr 13 min 30 sec) 
Heartbeat CPU 0 instructions: 440000000 cycles: 359194420 heartbeat IPC: 1.66517 cumulative IPC: 1.04382 (Simulation time: 0 hr 13 min 48 sec) 
Heartbeat CPU 0 instructions: 450000000 cycles: 365275444 heartbeat IPC: 1.64446 cumulative IPC: 1.05482 (Simulation time: 0 hr 14 min 5 sec) 
Heartbeat CPU 0 instructions: 460000000 cycles: 373122285 heartbeat IPC: 1.2744 cumulative IPC: 1.0599 (Simulation time: 0 hr 14 min 22 sec) 
Heartbeat CPU 0 instructions: 470000001 cycles: 381982569 heartbeat IPC: 1.12863 cumulative IPC: 1.06164 (Simulation time: 0 hr 14 min 37 sec) 
Heartbeat CPU 0 instructions: 480000001 cycles: 390477986 heartbeat IPC: 1.17711 cumulative IPC: 1.06439 (Simulation time: 0 hr 14 min 53 sec) 
Heartbeat CPU 0 instructions: 490000000 cycles: 398976948 heartbeat IPC: 1.17661 cumulative IPC: 1.067 (Simulation time: 0 hr 15 min 9 sec) 
Heartbeat CPU 0 instructions: 500000000 cycles: 407724916 heartbeat IPC: 1.14312 cumulative IPC: 1.06878 (Simulation time: 0 hr 15 min 25 sec) 
Heartbeat CPU 0 instructions: 510000001 cycles: 418079074 heartbeat IPC: 0.965796 cumulative IPC: 1.06601 (Simulation time: 0 hr 15 min 43 sec) 
Heartbeat CPU 0 instructions: 520000003 cycles: 440870808 heartbeat IPC: 0.438756 cumulative IPC: 1.03092 (Simulation time: 0 hr 16 min 13 sec) 
Heartbeat CPU 0 instructions: 530000001 cycles: 447346366 heartbeat IPC: 1.54427 cumulative IPC: 1.03895 (Simulation time: 0 hr 16 min 31 sec) 
Heartbeat CPU 0 instructions: 540000000 cycles: 453383420 heartbeat IPC: 1.65644 cumulative IPC: 1.04783 (Simulation time: 0 hr 16 min 49 sec) 
Heartbeat CPU 0 instructions: 550000000 cycles: 459482845 heartbeat IPC: 1.6395 cumulative IPC: 1.0563 (Simulation time: 0 hr 17 min 6 sec) 
Heartbeat CPU 0 instructions: 560000000 cycles: 467003506 heartbeat IPC: 1.32967 cumulative IPC: 1.06104 (Simulation time: 0 hr 17 min 22 sec) 
Heartbeat CPU 0 instructions: 570000002 cycles: 475568787 heartbeat IPC: 1.1675 cumulative IPC: 1.0631 (Simulation time: 0 hr 17 min 38 sec) 
Heartbeat CPU 0 instructions: 580000001 cycles: 484153395 heartbeat IPC: 1.16488 cumulative IPC: 1.06504 (Simulation time: 0 hr 17 min 53 sec) 
Heartbeat CPU 0 instructions: 590000000 cycles: 492612989 heartbeat IPC: 1.18209 cumulative IPC: 1.0672 (Simulation time: 0 hr 18 min 9 sec) 
Heartbeat CPU 0 instructions: 600000002 cycles: 501606011 heartbeat IPC: 1.11197 cumulative IPC: 1.06806 (Simulation time: 0 hr 18 min 25 sec) 
Heartbeat CPU 0 instructions: 610000000 cycles: 511609951 heartbeat IPC: 0.999606 cumulative IPC: 1.06663 (Simulation time: 0 hr 18 min 43 sec) 
Heartbeat CPU 0 instructions: 620000002 cycles: 534428195 heartbeat IPC: 0.438246 cumulative IPC: 1.038 (Simulation time: 0 hr 19 min 13 sec) 
Heartbeat CPU 0 instructions: 630000000 cycles: 541080318 heartbeat IPC: 1.50328 cumulative IPC: 1.0441 (Simulation time: 0 hr 19 min 31 sec) 
Heartbeat CPU 0 instructions: 640000002 cycles: 547125909 heartbeat IPC: 1.6541 cumulative IPC: 1.05128 (Simulation time: 0 hr 19 min 49 sec) 
Heartbeat CPU 0 instructions: 650000000 cycles: 553882075 heartbeat IPC: 1.48013 cumulative IPC: 1.05685 (Simulation time: 0 hr 20 min 6 sec) 
Heartbeat CPU 0 instructions: 660000000 cycles: 562770002 heartbeat IPC: 1.12512 cumulative IPC: 1.05799 (Simulation time: 0 hr 20 min 21 sec) 
Heartbeat CPU 0 instructions: 670000000 cycles: 571768666 heartbeat IPC: 1.11128 cumulative IPC: 1.05889 (Simulation time: 0 hr 20 min 36 sec) 
Heartbeat CPU 0 instructions: 680000000 cycles: 579709719 heartbeat IPC: 1.25928 cumulative IPC: 1.0618 (Simulation time: 0 hr 20 min 52 sec) 
Heartbeat CPU 0 instructions: 690000000 cycles: 588778768 heartbeat IPC: 1.10265 cumulative IPC: 1.06247 (Simulation time: 0 hr 21 min 9 sec) 
Heartbeat CPU 0 instructions: 700000001 cycles: 598702391 heartbeat IPC: 1.0077 cumulative IPC: 1.0615 (Simulation time: 0 hr 21 min 25 sec) 
Heartbeat CPU 0 instructions: 710000001 cycles: 621790290 heartbeat IPC: 0.433127 cumulative IPC: 1.03684 (Simulation time: 0 hr 21 min 56 sec) 
Heartbeat CPU 0 instructions: 720000003 cycles: 628828416 heartbeat IPC: 1.42083 cumulative IPC: 1.04138 (Simulation time: 0 hr 22 min 14 sec) 
Heartbeat CPU 0 instructions: 730000000 cycles: 634982237 heartbeat IPC: 1.62501 cumulative IPC: 1.04735 (Simulation time: 0 hr 22 min 33 sec) 
Heartbeat CPU 0 instructions: 740000002 cycles: 642076492 heartbeat IPC: 1.40959 cumulative IPC: 1.05158 (Simulation time: 0 hr 22 min 49 sec) 
Heartbeat CPU 0 instructions: 750000002 cycles: 650509906 heartbeat IPC: 1.18576 cumulative IPC: 1.05341 (Simulation time: 0 hr 23 min 4 sec) 
Heartbeat CPU 0 instructions: 760000000 cycles: 659422254 heartbeat IPC: 1.12204 cumulative IPC: 1.05439 (Simulation time: 0 hr 23 min 20 sec) 
Heartbeat CPU 0 instructions: 770000000 cycles: 667384900 heartbeat IPC: 1.25586 cumulative IPC: 1.05692 (Simulation time: 0 hr 23 min 36 sec) 
Heartbeat CPU 0 instructions: 780000003 cycles: 676530491 heartbeat IPC: 1.09342 cumulative IPC: 1.05744 (Simulation time: 0 hr 23 min 52 sec) 
Heartbeat CPU 0 instructions: 790000000 cycles: 686252724 heartbeat IPC: 1.02857 cumulative IPC: 1.05701 (Simulation time: 0 hr 24 min 8 sec) 
Heartbeat CPU 0 instructions: 800000000 cycles: 709444235 heartbeat IPC: 0.431192 cumulative IPC: 1.03554 (Simulation time: 0 hr 24 min 40 sec) 
Heartbeat CPU 0 instructions: 810000003 cycles: 716688761 heartbeat IPC: 1.38035 cumulative IPC: 1.03919 (Simulation time: 0 hr 24 min 57 sec) 
Heartbeat CPU 0 instructions: 820000002 cycles: 722742238 heartbeat IPC: 1.65194 cumulative IPC: 1.04458 (Simulation time: 0 hr 25 min 16 sec) 
Heartbeat CPU 0 instructions: 830000001 cycles: 730208142 heartbeat IPC: 1.33942 cumulative IPC: 1.04773 (Simulation time: 0 hr 25 min 32 sec) 
Heartbeat CPU 0 instructions: 840000000 cycles: 738077184 heartbeat IPC: 1.2708 cumulative IPC: 1.05023 (Simulation time: 0 hr 25 min 48 sec) 
Heartbeat CPU 0 instructions: 850000001 cycles: 746962313 heartbeat IPC: 1.12548 cumulative IPC: 1.05116 (Simulation time: 0 hr 26 min 4 sec) 
Heartbeat CPU 0 instructions: 860000002 cycles: 754630478 heartbeat IPC: 1.30409 cumulative IPC: 1.05385 (Simulation time: 0 hr 26 min 20 sec) 
Heartbeat CPU 0 instructions: 870000000 cycles: 764023852 heartbeat IPC: 1.06458 cumulative IPC: 1.05399 (Simulation time: 0 hr 26 min 36 sec) 
Heartbeat CPU 0 instructions: 880000000 cycles: 773864869 heartbeat IPC: 1.01616 cumulative IPC: 1.05349 (Simulation time: 0 hr 26 min 52 sec) 
Heartbeat CPU 0 instructions: 890000000 cycles: 796913418 heartbeat IPC: 0.433867 cumulative IPC: 1.03478 (Simulation time: 0 hr 27 min 24 sec) 
Heartbeat CPU 0 instructions: 900000002 cycles: 804390849 heartbeat IPC: 1.33736 cumulative IPC: 1.03772 (Simulation time: 0 hr 27 min 40 sec) 
Heartbeat CPU 0 instructions: 910000000 cycles: 810437066 heartbeat IPC: 1.65393 cumulative IPC: 1.04251 (Simulation time: 0 hr 27 min 58 sec) 
Heartbeat CPU 0 instructions: 920000001 cycles: 816435481 heartbeat IPC: 1.66711 cumulative IPC: 1.0473 (Simulation time: 0 hr 28 min 15 sec) 
Heartbeat CPU 0 instructions: 930000000 cycles: 824536431 heartbeat IPC: 1.23442 cumulative IPC: 1.04921 (Simulation time: 0 hr 28 min 31 sec) 
Heartbeat CPU 0 instructions: 940000000 cycles: 833548596 heartbeat IPC: 1.10961 cumulative IPC: 1.04989 (Simulation time: 0 hr 28 min 47 sec) 
Heartbeat CPU 0 instructions: 950000003 cycles: 842091727 heartbeat IPC: 1.17053 cumulative IPC: 1.05117 (Simulation time: 0 hr 29 min 2 sec) 
Heartbeat CPU 0 instructions: 960000001 cycles: 850457558 heartbeat IPC: 1.19534 cumulative IPC: 1.05264 (Simulation time: 0 hr 29 min 17 sec) 
Heartbeat CPU 0 instructions: 970000000 cycles: 859303690 heartbeat IPC: 1.13044 cumulative IPC: 1.05348 (Simulation time: 0 hr 29 min 34 sec) 
Heartbeat CPU 0 instructions: 980000002 cycles: 869079561 heartbeat IPC: 1.02293 cumulative IPC: 1.05312 (Simulation time: 0 hr 29 min 51 sec) 
Heartbeat CPU 0 instructions: 990000000 cycles: 892295035 heartbeat IPC: 0.430747 cumulative IPC: 1.0363 (Simulation time: 0 hr 30 min 21 sec) 
Heartbeat CPU 0 instructions: 1000000000 cycles: 899069185 heartbeat IPC: 1.4762 cumulative IPC: 1.03974 (Simulation time: 0 hr 30 min 39 sec) 
Heartbeat CPU 0 instructions: 1010000000 cycles: 905101411 heartbeat IPC: 1.65776 cumulative IPC: 1.04402 (Simulation time: 0 hr 30 min 57 sec) 
Heartbeat CPU 0 instructions: 1020000000 cycles: 911312565 heartbeat IPC: 1.61001 cumulative IPC: 1.04802 (Simulation time: 0 hr 31 min 13 sec) 
Heartbeat CPU 0 instructions: 1030000002 cycles: 920099740 heartbeat IPC: 1.13802 cumulative IPC: 1.04891 (Simulation time: 0 hr 31 min 28 sec) 
Heartbeat CPU 0 instructions: 1040000000 cycles: 927987809 heartbeat IPC: 1.26774 cumulative IPC: 1.05084 (Simulation time: 0 hr 31 min 44 sec) 
Heartbeat CPU 0 instructions: 1050000001 cycles: 935978486 heartbeat IPC: 1.25146 cumulative IPC: 1.05262 (Simulation time: 0 hr 31 min 59 sec) 
Heartbeat CPU 0 instructions: 1060000001 cycles: 945070885 heartbeat IPC: 1.09982 cumulative IPC: 1.05309 (Simulation time: 0 hr 32 min 15 sec) 
Heartbeat CPU 0 instructions: 1070000002 cycles: 954004537 heartbeat IPC: 1.11936 cumulative IPC: 1.05373 (Simulation time: 0 hr 32 min 30 sec) 
Heartbeat CPU 0 instructions: 1080000003 cycles: 974156449 heartbeat IPC: 0.496231 cumulative IPC: 1.04179 (Simulation time: 0 hr 32 min 59 sec) 
Heartbeat CPU 0 instructions: 1090000003 cycles: 986604933 heartbeat IPC: 0.803311 cumulative IPC: 1.03867 (Simulation time: 0 hr 33 min 18 sec) 
Heartbeat CPU 0 instructions: 1100000000 cycles: 992753839 heartbeat IPC: 1.62631 cumulative IPC: 1.04244 (Simulation time: 0 hr 33 min 36 sec) 
Finished CPU 0 instructions: 1000000003 cycles: 959287085 cumulative IPC: 1.04244 (Simulation time: 0 hr 33 min 36 sec) 

ChampSim completed all CPUs

Region of Interest Statistics

CPU 0 cumulative IPC: 1.04244 instructions: 1000000003 cycles: 959287085
L1D TOTAL     ACCESS:  200946693  HIT:  191346511  MISS:    9600182
L1D LOAD      ACCESS:  118019245  HIT:  114948933  MISS:    3070312
L1D RFO       ACCESS:   82927448  HIT:   76397578  MISS:    6529870
L1D PREFETCH  ACCESS:          0  HIT:          0  MISS:          0
L1D WRITEBACK ACCESS:          0  HIT:          0  MISS:          0
L1D PREFETCH  REQUESTED:          0  ISSUED:          0  USEFUL:          0  USELESS:          0
L1D AVERAGE MISS LATENCY: 342.511 cycles
L1I TOTAL     ACCESS:  167154886  HIT:  166746679  MISS:     408207
L1I LOAD      ACCESS:  167154886  HIT:  166746679  MISS:     408207
L1I RFO       ACCESS:          0  HIT:          0  MISS:          0
L1I PREFETCH  ACCESS:          0  HIT:          0  MISS:          0
L1I WRITEBACK ACCESS:          0  HIT:          0  MISS:          0
L1I PREFETCH  REQUESTED:          0  ISSUED:          0  USEFUL:          0  USELESS:          0
L1I AVERAGE MISS LATENCY: 68.1701 cycles
L2C TOTAL     ACCESS:   16939288  HIT:   10390248  MISS:    6549040
L2C LOAD      ACCESS:    3478276  HIT:    2450033  MISS:    1028243
L2C RFO       ACCESS:    6529523  HIT:    1016302  MISS:    5513221
L2C PREFETCH  ACCESS:          0  HIT:          0  MISS:          0
L2C WRITEBACK ACCESS:    6931489  HIT:    6923913  MISS:       7576
L2C PREFETCH  REQUESTED:          0  ISSUED:          0  USEFUL:          0  USELESS:          0
L2C AVERAGE MISS LATENCY: 482.121 cycles
LLC TOTAL     ACCESS:   12226727  HIT:    1625380  MISS:   10601347
LLC LOAD      ACCESS:    1028241  HIT:     632936  MISS:     395305
LLC RFO       ACCESS:    5513218  HIT:     368243  MISS:    5144975
LLC PREFETCH  ACCESS:          0  HIT:          0  MISS:          0
LLC WRITEBACK ACCESS:    5685268  HIT:     624201  MISS:    5061067
LLC PREFETCH  REQUESTED:          0  ISSUED:          0  USEFUL:          0  USELESS:          0
LLC AVERAGE MISS LATENCY: 277.289 cycles
Major fault: 0 Minor fault: 7146
==============================
Perceptron RRIP Stats:
   Num Updates: 6818614
   Num Trains:  178018
==============================
perceptron #0: 38 46 60 20 38 -2 14 16 16 16 -18 2 4 -22 -10 -2 -2 -6 2 -6 -4 0 6 -94 

perceptron #1: 43 41 65 27 37 -13 5 17 3 15 -15 5 3 -27 -9 -7 -5 -5 3 1 -3 1 1 -97 

perceptron #2: 44 22 48 12 40 -6 2 12 6 14 -28 16 14 -48 -22 -14 -8 -12 12 -4 -8 -4 -4 -112 

perceptron #3: 44 30 56 20 34 -6 8 16 4 20 -26 12 16 -36 -28 -10 -12 0 2 -12 4 2 -4 -96 

perceptron #4: 44 28 44 24 30 -14 2 22 2 18 -32 12 18 -38 -30 -12 -12 -8 -2 -16 6 4 -6 -94 

perceptron #5: 42 34 54 20 42 -4 12 18 4 12 -28 8 24 -36 -26 -12 -14 -8 4 10 -8 -4 2 -102 

perceptron #6: 40 38 60 26 34 -2 6 18 10 18 -24 12 14 -30 -24 -6 -20 -12 4 -6 -2 0 4 -92 

perceptron #7: 41 37 55 19 45 3 11 17 13 19 -19 7 9 -17 -9 -1 -7 -3 1 3 -7 -9 7 -97 


DRAM Statistics
 CHANNEL 0
 RQ ROW_BUFFER_HIT:    1870228  ROW_BUFFER_MISS:    3670036
 DBUS_CONGESTED:    9083805
 WQ ROW_BUFFER_HIT:    1620322  ROW_BUFFER_MISS:    3581875  FULL:    4401836

 AVG_CONGESTED_CYCLE: 6

CPU 0 Branch Prediction Accuracy: 93.7395% MPKI: 8.37522 Average ROB Occupancy at Mispredict: 35.2466

Branch types
NOT_BRANCH: 866220388 86.622%
BRANCH_DIRECT_JUMP: 7799639 0.779964%
BRANCH_INDIRECT: 50546 0.0050546%
BRANCH_CONDITIONAL: 115170924 11.5171%
BRANCH_DIRECT_CALL: 5379116 0.537912%
BRANCH_INDIRECT_CALL: 0 0%
BRANCH_RETURN: 5379110 0.537911%
BRANCH_OTHER: 0 0%

