
*** ChampSim Multicore Out-of-Order Simulator ***

Warmup Instructions: 100000000
Simulation Instructions: 1000000000
Number of CPUs: 1
LLC sets: 2048
LLC ways: 16
Off-chip DRAM Size: 4096 MB Channels: 1 Width: 64-bit Data Rate: 3200 MT/s

CPU 0 runs /scratch/user/kevin.weston/dpc3-traces/628.champsimtrace.xz
CPU 0 Bimodal branch predictor
Initialize RRPV
Initialize PRRIP state
Heartbeat CPU 0 instructions: 10000003 cycles: 3401107 heartbeat IPC: 2.94022 cumulative IPC: 2.94022 (Simulation time: 0 hr 0 min 17 sec) 
Heartbeat CPU 0 instructions: 20000001 cycles: 6802571 heartbeat IPC: 2.93991 cumulative IPC: 2.94006 (Simulation time: 0 hr 0 min 34 sec) 
Heartbeat CPU 0 instructions: 30000003 cycles: 10202464 heartbeat IPC: 2.94127 cumulative IPC: 2.94047 (Simulation time: 0 hr 0 min 51 sec) 
Heartbeat CPU 0 instructions: 40000003 cycles: 13599920 heartbeat IPC: 2.94338 cumulative IPC: 2.94119 (Simulation time: 0 hr 1 min 9 sec) 
Heartbeat CPU 0 instructions: 50000002 cycles: 16989831 heartbeat IPC: 2.94993 cumulative IPC: 2.94294 (Simulation time: 0 hr 1 min 26 sec) 
Heartbeat CPU 0 instructions: 60000000 cycles: 20378013 heartbeat IPC: 2.95143 cumulative IPC: 2.94435 (Simulation time: 0 hr 1 min 43 sec) 
Heartbeat CPU 0 instructions: 70000002 cycles: 23751970 heartbeat IPC: 2.96388 cumulative IPC: 2.94712 (Simulation time: 0 hr 2 min 0 sec) 
Heartbeat CPU 0 instructions: 80000000 cycles: 27003816 heartbeat IPC: 3.07518 cumulative IPC: 2.96254 (Simulation time: 0 hr 2 min 15 sec) 
Heartbeat CPU 0 instructions: 90000003 cycles: 30395378 heartbeat IPC: 2.94849 cumulative IPC: 2.96098 (Simulation time: 0 hr 2 min 30 sec) 
Heartbeat CPU 0 instructions: 100000003 cycles: 33795132 heartbeat IPC: 2.94139 cumulative IPC: 2.95901 (Simulation time: 0 hr 2 min 47 sec) 

Warmup complete CPU 0 instructions: 100000003 cycles: 33795132 (Simulation time: 0 hr 2 min 47 sec) 

Heartbeat CPU 0 instructions: 110000000 cycles: 42581672 heartbeat IPC: 1.1381 cumulative IPC: 1.1381 (Simulation time: 0 hr 3 min 2 sec) 
Heartbeat CPU 0 instructions: 120000000 cycles: 51581860 heartbeat IPC: 1.11109 cumulative IPC: 1.12443 (Simulation time: 0 hr 3 min 15 sec) 
Heartbeat CPU 0 instructions: 130000002 cycles: 60264110 heartbeat IPC: 1.15178 cumulative IPC: 1.1334 (Simulation time: 0 hr 3 min 28 sec) 
Heartbeat CPU 0 instructions: 140000001 cycles: 69513117 heartbeat IPC: 1.0812 cumulative IPC: 1.11988 (Simulation time: 0 hr 3 min 39 sec) 
Heartbeat CPU 0 instructions: 150000001 cycles: 78060906 heartbeat IPC: 1.16989 cumulative IPC: 1.12954 (Simulation time: 0 hr 3 min 48 sec) 
Heartbeat CPU 0 instructions: 160000000 cycles: 87491910 heartbeat IPC: 1.06033 cumulative IPC: 1.11739 (Simulation time: 0 hr 3 min 59 sec) 
Heartbeat CPU 0 instructions: 170000002 cycles: 95507624 heartbeat IPC: 1.24755 cumulative IPC: 1.13429 (Simulation time: 0 hr 4 min 13 sec) 
Heartbeat CPU 0 instructions: 180000003 cycles: 105104123 heartbeat IPC: 1.04205 cumulative IPC: 1.12188 (Simulation time: 0 hr 4 min 29 sec) 
Heartbeat CPU 0 instructions: 190000003 cycles: 114470953 heartbeat IPC: 1.0676 cumulative IPC: 1.11558 (Simulation time: 0 hr 4 min 47 sec) 
Heartbeat CPU 0 instructions: 200000001 cycles: 123732273 heartbeat IPC: 1.07976 cumulative IPC: 1.11189 (Simulation time: 0 hr 5 min 4 sec) 
Heartbeat CPU 0 instructions: 210000002 cycles: 132952236 heartbeat IPC: 1.0846 cumulative IPC: 1.10935 (Simulation time: 0 hr 5 min 22 sec) 
Heartbeat CPU 0 instructions: 220000000 cycles: 142182684 heartbeat IPC: 1.08337 cumulative IPC: 1.10714 (Simulation time: 0 hr 5 min 39 sec) 
Heartbeat CPU 0 instructions: 230000000 cycles: 151432563 heartbeat IPC: 1.0811 cumulative IPC: 1.10509 (Simulation time: 0 hr 5 min 56 sec) 
Heartbeat CPU 0 instructions: 240000002 cycles: 160489691 heartbeat IPC: 1.1041 cumulative IPC: 1.10502 (Simulation time: 0 hr 6 min 13 sec) 
Heartbeat CPU 0 instructions: 250000002 cycles: 169373552 heartbeat IPC: 1.12564 cumulative IPC: 1.10637 (Simulation time: 0 hr 6 min 30 sec) 
Heartbeat CPU 0 instructions: 260000000 cycles: 177562078 heartbeat IPC: 1.22122 cumulative IPC: 1.11291 (Simulation time: 0 hr 6 min 45 sec) 
Heartbeat CPU 0 instructions: 270000000 cycles: 185937317 heartbeat IPC: 1.194 cumulative IPC: 1.11738 (Simulation time: 0 hr 7 min 0 sec) 
Heartbeat CPU 0 instructions: 280000001 cycles: 193452767 heartbeat IPC: 1.33059 cumulative IPC: 1.12741 (Simulation time: 0 hr 7 min 15 sec) 
Heartbeat CPU 0 instructions: 290000002 cycles: 202443631 heartbeat IPC: 1.11224 cumulative IPC: 1.1266 (Simulation time: 0 hr 7 min 30 sec) 
Heartbeat CPU 0 instructions: 300000001 cycles: 211539092 heartbeat IPC: 1.09945 cumulative IPC: 1.12521 (Simulation time: 0 hr 7 min 43 sec) 
Heartbeat CPU 0 instructions: 310000000 cycles: 220594767 heartbeat IPC: 1.10428 cumulative IPC: 1.1242 (Simulation time: 0 hr 7 min 56 sec) 
Heartbeat CPU 0 instructions: 320000003 cycles: 230297440 heartbeat IPC: 1.03064 cumulative IPC: 1.11958 (Simulation time: 0 hr 8 min 7 sec) 
Heartbeat CPU 0 instructions: 330000000 cycles: 239517544 heartbeat IPC: 1.08459 cumulative IPC: 1.11801 (Simulation time: 0 hr 8 min 18 sec) 
Heartbeat CPU 0 instructions: 340000001 cycles: 249304265 heartbeat IPC: 1.02179 cumulative IPC: 1.11364 (Simulation time: 0 hr 8 min 30 sec) 
Heartbeat CPU 0 instructions: 350000000 cycles: 257491880 heartbeat IPC: 1.22136 cumulative IPC: 1.11758 (Simulation time: 0 hr 8 min 43 sec) 
Heartbeat CPU 0 instructions: 360000000 cycles: 267015234 heartbeat IPC: 1.05005 cumulative IPC: 1.11483 (Simulation time: 0 hr 8 min 59 sec) 
Heartbeat CPU 0 instructions: 370000001 cycles: 276592743 heartbeat IPC: 1.04411 cumulative IPC: 1.11204 (Simulation time: 0 hr 9 min 17 sec) 
Heartbeat CPU 0 instructions: 380000002 cycles: 286060090 heartbeat IPC: 1.05626 cumulative IPC: 1.10994 (Simulation time: 0 hr 9 min 35 sec) 
Heartbeat CPU 0 instructions: 390000000 cycles: 295447132 heartbeat IPC: 1.0653 cumulative IPC: 1.10834 (Simulation time: 0 hr 9 min 53 sec) 
Heartbeat CPU 0 instructions: 400000002 cycles: 304779863 heartbeat IPC: 1.0715 cumulative IPC: 1.10707 (Simulation time: 0 hr 10 min 10 sec) 
Heartbeat CPU 0 instructions: 410000002 cycles: 314058810 heartbeat IPC: 1.07771 cumulative IPC: 1.1061 (Simulation time: 0 hr 10 min 27 sec) 
Heartbeat CPU 0 instructions: 420000002 cycles: 323295070 heartbeat IPC: 1.08269 cumulative IPC: 1.10535 (Simulation time: 0 hr 10 min 45 sec) 
Heartbeat CPU 0 instructions: 430000002 cycles: 332352129 heartbeat IPC: 1.10411 cumulative IPC: 1.10532 (Simulation time: 0 hr 11 min 2 sec) 
Heartbeat CPU 0 instructions: 440000000 cycles: 339929032 heartbeat IPC: 1.3198 cumulative IPC: 1.11063 (Simulation time: 0 hr 11 min 17 sec) 
Heartbeat CPU 0 instructions: 450000002 cycles: 348800363 heartbeat IPC: 1.12723 cumulative IPC: 1.11109 (Simulation time: 0 hr 11 min 32 sec) 
Heartbeat CPU 0 instructions: 460000002 cycles: 356173033 heartbeat IPC: 1.35636 cumulative IPC: 1.1167 (Simulation time: 0 hr 11 min 47 sec) 
Heartbeat CPU 0 instructions: 470000000 cycles: 364950028 heartbeat IPC: 1.13934 cumulative IPC: 1.1173 (Simulation time: 0 hr 12 min 2 sec) 
Heartbeat CPU 0 instructions: 480000001 cycles: 374057108 heartbeat IPC: 1.09805 cumulative IPC: 1.11679 (Simulation time: 0 hr 12 min 17 sec) 
Heartbeat CPU 0 instructions: 490000001 cycles: 382401866 heartbeat IPC: 1.19836 cumulative IPC: 1.11874 (Simulation time: 0 hr 12 min 29 sec) 
Heartbeat CPU 0 instructions: 500000003 cycles: 392413930 heartbeat IPC: 0.998795 cumulative IPC: 1.11539 (Simulation time: 0 hr 12 min 41 sec) 
Heartbeat CPU 0 instructions: 510000001 cycles: 401156726 heartbeat IPC: 1.1438 cumulative IPC: 1.11607 (Simulation time: 0 hr 12 min 51 sec) 
Heartbeat CPU 0 instructions: 520000001 cycles: 411148720 heartbeat IPC: 1.0008 cumulative IPC: 1.11301 (Simulation time: 0 hr 13 min 4 sec) 
Heartbeat CPU 0 instructions: 530000002 cycles: 419329156 heartbeat IPC: 1.22243 cumulative IPC: 1.11534 (Simulation time: 0 hr 13 min 16 sec) 
Heartbeat CPU 0 instructions: 540000002 cycles: 428020474 heartbeat IPC: 1.15057 cumulative IPC: 1.11611 (Simulation time: 0 hr 13 min 31 sec) 
Heartbeat CPU 0 instructions: 550000000 cycles: 437790067 heartbeat IPC: 1.02358 cumulative IPC: 1.11388 (Simulation time: 0 hr 13 min 49 sec) 
Heartbeat CPU 0 instructions: 560000000 cycles: 447045245 heartbeat IPC: 1.08048 cumulative IPC: 1.11313 (Simulation time: 0 hr 14 min 7 sec) 
Heartbeat CPU 0 instructions: 570000001 cycles: 456292522 heartbeat IPC: 1.0814 cumulative IPC: 1.11243 (Simulation time: 0 hr 14 min 25 sec) 
Heartbeat CPU 0 instructions: 580000001 cycles: 465408879 heartbeat IPC: 1.09693 cumulative IPC: 1.11211 (Simulation time: 0 hr 14 min 43 sec) 
Heartbeat CPU 0 instructions: 590000003 cycles: 474526073 heartbeat IPC: 1.09683 cumulative IPC: 1.11179 (Simulation time: 0 hr 15 min 1 sec) 
Heartbeat CPU 0 instructions: 600000001 cycles: 483631098 heartbeat IPC: 1.09829 cumulative IPC: 1.11152 (Simulation time: 0 hr 15 min 18 sec) 
Heartbeat CPU 0 instructions: 610000001 cycles: 492845087 heartbeat IPC: 1.08531 cumulative IPC: 1.11099 (Simulation time: 0 hr 15 min 36 sec) 
Heartbeat CPU 0 instructions: 620000001 cycles: 500367597 heartbeat IPC: 1.32934 cumulative IPC: 1.11451 (Simulation time: 0 hr 15 min 50 sec) 
Heartbeat CPU 0 instructions: 630000003 cycles: 509749785 heartbeat IPC: 1.06585 cumulative IPC: 1.11355 (Simulation time: 0 hr 16 min 7 sec) 
Heartbeat CPU 0 instructions: 640000000 cycles: 517782232 heartbeat IPC: 1.24495 cumulative IPC: 1.11573 (Simulation time: 0 hr 16 min 21 sec) 
Heartbeat CPU 0 instructions: 650000001 cycles: 526350623 heartbeat IPC: 1.16708 cumulative IPC: 1.11663 (Simulation time: 0 hr 16 min 37 sec) 
Heartbeat CPU 0 instructions: 660000000 cycles: 535504825 heartbeat IPC: 1.09239 cumulative IPC: 1.11618 (Simulation time: 0 hr 16 min 53 sec) 
Heartbeat CPU 0 instructions: 670000002 cycles: 543846072 heartbeat IPC: 1.19886 cumulative IPC: 1.11754 (Simulation time: 0 hr 17 min 4 sec) 
Heartbeat CPU 0 instructions: 680000003 cycles: 554355427 heartbeat IPC: 0.951533 cumulative IPC: 1.11418 (Simulation time: 0 hr 17 min 18 sec) 
Heartbeat CPU 0 instructions: 690000000 cycles: 562692794 heartbeat IPC: 1.19942 cumulative IPC: 1.11553 (Simulation time: 0 hr 17 min 27 sec) 
Heartbeat CPU 0 instructions: 700000000 cycles: 572342187 heartbeat IPC: 1.03633 cumulative IPC: 1.11411 (Simulation time: 0 hr 17 min 39 sec) 
Heartbeat CPU 0 instructions: 710000003 cycles: 582008738 heartbeat IPC: 1.0345 cumulative IPC: 1.1127 (Simulation time: 0 hr 17 min 52 sec) 
Heartbeat CPU 0 instructions: 720000001 cycles: 589977341 heartbeat IPC: 1.25492 cumulative IPC: 1.11474 (Simulation time: 0 hr 18 min 7 sec) 
Heartbeat CPU 0 instructions: 730000001 cycles: 600228348 heartbeat IPC: 0.975514 cumulative IPC: 1.11222 (Simulation time: 0 hr 18 min 25 sec) 
Heartbeat CPU 0 instructions: 740000002 cycles: 609455748 heartbeat IPC: 1.08373 cumulative IPC: 1.11177 (Simulation time: 0 hr 18 min 43 sec) 
Heartbeat CPU 0 instructions: 750000002 cycles: 618764035 heartbeat IPC: 1.07431 cumulative IPC: 1.11117 (Simulation time: 0 hr 19 min 1 sec) 
Heartbeat CPU 0 instructions: 760000003 cycles: 628041517 heartbeat IPC: 1.07788 cumulative IPC: 1.11065 (Simulation time: 0 hr 19 min 19 sec) 
Heartbeat CPU 0 instructions: 770000000 cycles: 637349191 heartbeat IPC: 1.07438 cumulative IPC: 1.11009 (Simulation time: 0 hr 19 min 37 sec) 
Heartbeat CPU 0 instructions: 780000000 cycles: 646714994 heartbeat IPC: 1.06771 cumulative IPC: 1.10944 (Simulation time: 0 hr 19 min 54 sec) 
Heartbeat CPU 0 instructions: 790000002 cycles: 656015788 heartbeat IPC: 1.07518 cumulative IPC: 1.10893 (Simulation time: 0 hr 20 min 12 sec) 
Heartbeat CPU 0 instructions: 800000000 cycles: 664271986 heartbeat IPC: 1.21121 cumulative IPC: 1.11027 (Simulation time: 0 hr 20 min 28 sec) 
Heartbeat CPU 0 instructions: 810000001 cycles: 673138067 heartbeat IPC: 1.12789 cumulative IPC: 1.11052 (Simulation time: 0 hr 20 min 43 sec) 
Heartbeat CPU 0 instructions: 820000002 cycles: 681002301 heartbeat IPC: 1.27158 cumulative IPC: 1.11247 (Simulation time: 0 hr 20 min 59 sec) 
Heartbeat CPU 0 instructions: 830000002 cycles: 688620519 heartbeat IPC: 1.31264 cumulative IPC: 1.1148 (Simulation time: 0 hr 21 min 15 sec) 
Heartbeat CPU 0 instructions: 840000003 cycles: 697135657 heartbeat IPC: 1.17438 cumulative IPC: 1.11557 (Simulation time: 0 hr 21 min 29 sec) 
Heartbeat CPU 0 instructions: 850000001 cycles: 706201125 heartbeat IPC: 1.10309 cumulative IPC: 1.1154 (Simulation time: 0 hr 21 min 42 sec) 
Heartbeat CPU 0 instructions: 860000000 cycles: 715445594 heartbeat IPC: 1.08173 cumulative IPC: 1.11494 (Simulation time: 0 hr 21 min 56 sec) 
Heartbeat CPU 0 instructions: 870000001 cycles: 725075626 heartbeat IPC: 1.03842 cumulative IPC: 1.11387 (Simulation time: 0 hr 22 min 7 sec) 
Heartbeat CPU 0 instructions: 880000000 cycles: 734613016 heartbeat IPC: 1.0485 cumulative IPC: 1.11299 (Simulation time: 0 hr 22 min 20 sec) 
Heartbeat CPU 0 instructions: 890000001 cycles: 744528364 heartbeat IPC: 1.00854 cumulative IPC: 1.11153 (Simulation time: 0 hr 22 min 31 sec) 
Heartbeat CPU 0 instructions: 900000001 cycles: 752403272 heartbeat IPC: 1.26986 cumulative IPC: 1.11326 (Simulation time: 0 hr 22 min 45 sec) 
Heartbeat CPU 0 instructions: 910000000 cycles: 761833151 heartbeat IPC: 1.06046 cumulative IPC: 1.11258 (Simulation time: 0 hr 23 min 2 sec) 
Heartbeat CPU 0 instructions: 920000002 cycles: 771086237 heartbeat IPC: 1.08072 cumulative IPC: 1.11218 (Simulation time: 0 hr 23 min 20 sec) 
Heartbeat CPU 0 instructions: 930000001 cycles: 780323992 heartbeat IPC: 1.08251 cumulative IPC: 1.11181 (Simulation time: 0 hr 23 min 38 sec) 
Heartbeat CPU 0 instructions: 940000001 cycles: 789366508 heartbeat IPC: 1.10589 cumulative IPC: 1.11174 (Simulation time: 0 hr 23 min 56 sec) 
Heartbeat CPU 0 instructions: 950000003 cycles: 798415880 heartbeat IPC: 1.10505 cumulative IPC: 1.11166 (Simulation time: 0 hr 24 min 14 sec) 
Heartbeat CPU 0 instructions: 960000002 cycles: 807391632 heartbeat IPC: 1.11411 cumulative IPC: 1.11169 (Simulation time: 0 hr 24 min 31 sec) 
Heartbeat CPU 0 instructions: 970000002 cycles: 816534060 heartbeat IPC: 1.0938 cumulative IPC: 1.11148 (Simulation time: 0 hr 24 min 49 sec) 
Heartbeat CPU 0 instructions: 980000001 cycles: 825842086 heartbeat IPC: 1.07434 cumulative IPC: 1.11105 (Simulation time: 0 hr 25 min 7 sec) 
Heartbeat CPU 0 instructions: 990000000 cycles: 833305456 heartbeat IPC: 1.33988 cumulative IPC: 1.11318 (Simulation time: 0 hr 25 min 21 sec) 
Heartbeat CPU 0 instructions: 1000000001 cycles: 842615406 heartbeat IPC: 1.07412 cumulative IPC: 1.11273 (Simulation time: 0 hr 25 min 36 sec) 
Heartbeat CPU 0 instructions: 1010000000 cycles: 850049728 heartbeat IPC: 1.34511 cumulative IPC: 1.11485 (Simulation time: 0 hr 25 min 51 sec) 
Heartbeat CPU 0 instructions: 1020000003 cycles: 858854303 heartbeat IPC: 1.13577 cumulative IPC: 1.11507 (Simulation time: 0 hr 26 min 7 sec) 
Heartbeat CPU 0 instructions: 1030000001 cycles: 868016996 heartbeat IPC: 1.09138 cumulative IPC: 1.11481 (Simulation time: 0 hr 26 min 21 sec) 
Heartbeat CPU 0 instructions: 1040000000 cycles: 876544556 heartbeat IPC: 1.17267 cumulative IPC: 1.1154 (Simulation time: 0 hr 26 min 34 sec) 
Heartbeat CPU 0 instructions: 1050000001 cycles: 886869404 heartbeat IPC: 0.968537 cumulative IPC: 1.11362 (Simulation time: 0 hr 26 min 47 sec) 
Heartbeat CPU 0 instructions: 1060000002 cycles: 895625589 heartbeat IPC: 1.14205 cumulative IPC: 1.11391 (Simulation time: 0 hr 26 min 57 sec) 
Heartbeat CPU 0 instructions: 1070000000 cycles: 906094459 heartbeat IPC: 0.955213 cumulative IPC: 1.112 (Simulation time: 0 hr 27 min 10 sec) 
Heartbeat CPU 0 instructions: 1080000001 cycles: 914385806 heartbeat IPC: 1.20608 cumulative IPC: 1.11289 (Simulation time: 0 hr 27 min 22 sec) 
Heartbeat CPU 0 instructions: 1090000000 cycles: 922633918 heartbeat IPC: 1.2124 cumulative IPC: 1.11381 (Simulation time: 0 hr 27 min 37 sec) 
Heartbeat CPU 0 instructions: 1100000000 cycles: 932499795 heartbeat IPC: 1.01359 cumulative IPC: 1.11271 (Simulation time: 0 hr 27 min 55 sec) 
Finished CPU 0 instructions: 1000000003 cycles: 898704666 cumulative IPC: 1.11271 (Simulation time: 0 hr 27 min 55 sec) 

ChampSim completed all CPUs

Region of Interest Statistics

CPU 0 cumulative IPC: 1.11271 instructions: 1000000003 cycles: 898704666
L1D TOTAL     ACCESS:  184696902  HIT:  170791316  MISS:   13905586
L1D LOAD      ACCESS:  131688053  HIT:  122679948  MISS:    9008105
L1D RFO       ACCESS:   53008849  HIT:   48111368  MISS:    4897481
L1D PREFETCH  ACCESS:          0  HIT:          0  MISS:          0
L1D WRITEBACK ACCESS:          0  HIT:          0  MISS:          0
L1D PREFETCH  REQUESTED:          0  ISSUED:          0  USEFUL:          0  USELESS:          0
L1D AVERAGE MISS LATENCY: 88.169 cycles
L1I TOTAL     ACCESS:  188329817  HIT:  187862762  MISS:     467055
L1I LOAD      ACCESS:  188329817  HIT:  187862762  MISS:     467055
L1I RFO       ACCESS:          0  HIT:          0  MISS:          0
L1I PREFETCH  ACCESS:          0  HIT:          0  MISS:          0
L1I WRITEBACK ACCESS:          0  HIT:          0  MISS:          0
L1I PREFETCH  REQUESTED:          0  ISSUED:          0  USEFUL:          0  USELESS:          0
L1I AVERAGE MISS LATENCY: 60.8945 cycles
L2C TOTAL     ACCESS:   20681623  HIT:   12840455  MISS:    7841168
L2C LOAD      ACCESS:    9474467  HIT:    4385011  MISS:    5089456
L2C RFO       ACCESS:    4896952  HIT:    2175321  MISS:    2721631
L2C PREFETCH  ACCESS:          0  HIT:          0  MISS:          0
L2C WRITEBACK ACCESS:    6310204  HIT:    6280123  MISS:      30081
L2C PREFETCH  REQUESTED:          0  ISSUED:          0  USEFUL:          0  USELESS:          0
L2C AVERAGE MISS LATENCY: 132.002 cycles
LLC TOTAL     ACCESS:   11559674  HIT:    6611802  MISS:    4947872
LLC LOAD      ACCESS:    5089422  HIT:    2723941  MISS:    2365481
LLC RFO       ACCESS:    2721625  HIT:    1360803  MISS:    1360822
LLC PREFETCH  ACCESS:          0  HIT:          0  MISS:          0
LLC WRITEBACK ACCESS:    3748627  HIT:    2527058  MISS:    1221569
LLC PREFETCH  REQUESTED:          0  ISSUED:          0  USEFUL:          0  USELESS:          0
LLC AVERAGE MISS LATENCY: 160.965 cycles
Major fault: 0 Minor fault: 31749
==============================
Perceptron RRIP Stats:
   Num Updates: 8778964
   Num Trains:  109951
==============================
perceptron #0: -1 -1 -1 3 1 5 5 1 -1 1 -1 3 1 5 3 -9 


DRAM Statistics
 CHANNEL 0
 RQ ROW_BUFFER_HIT:    1286147  ROW_BUFFER_MISS:    2439928
 DBUS_CONGESTED:    2098901
 WQ ROW_BUFFER_HIT:     703493  ROW_BUFFER_MISS:    1107393  FULL:     209254

 AVG_CONGESTED_CYCLE: 6

CPU 0 Branch Prediction Accuracy: 97.4355% MPKI: 4.07377 Average ROB Occupancy at Mispredict: 47.4279

Branch types
NOT_BRANCH: 841147633 84.1148%
BRANCH_DIRECT_JUMP: 2905141 0.290514%
BRANCH_INDIRECT: 40681 0.0040681%
BRANCH_CONDITIONAL: 149211941 14.9212%
BRANCH_DIRECT_CALL: 3347126 0.334713%
BRANCH_INDIRECT_CALL: 0 0%
BRANCH_RETURN: 3347125 0.334712%
BRANCH_OTHER: 0 0%

