
*** ChampSim Multicore Out-of-Order Simulator ***

Warmup Instructions: 100000000
Simulation Instructions: 1000000000
Number of CPUs: 1
LLC sets: 2048
LLC ways: 16
Off-chip DRAM Size: 4096 MB Channels: 1 Width: 64-bit Data Rate: 3200 MT/s

CPU 0 runs /scratch/user/kevin.weston/dpc3-traces/631.champsimtrace.xz
CPU 0 Bimodal branch predictor
Initialize RRPV
Initialize PRRIP state
Heartbeat CPU 0 instructions: 10000000 cycles: 3950305 heartbeat IPC: 2.53145 cumulative IPC: 2.53145 (Simulation time: 0 hr 0 min 24 sec) 
Heartbeat CPU 0 instructions: 20000000 cycles: 8025402 heartbeat IPC: 2.45393 cumulative IPC: 2.49209 (Simulation time: 0 hr 0 min 48 sec) 
Heartbeat CPU 0 instructions: 30000000 cycles: 11975766 heartbeat IPC: 2.53141 cumulative IPC: 2.50506 (Simulation time: 0 hr 1 min 12 sec) 
Heartbeat CPU 0 instructions: 40000001 cycles: 15928097 heartbeat IPC: 2.53015 cumulative IPC: 2.51129 (Simulation time: 0 hr 1 min 36 sec) 
Heartbeat CPU 0 instructions: 50000001 cycles: 19878100 heartbeat IPC: 2.53164 cumulative IPC: 2.51533 (Simulation time: 0 hr 2 min 0 sec) 
Heartbeat CPU 0 instructions: 60000001 cycles: 23735735 heartbeat IPC: 2.59226 cumulative IPC: 2.52783 (Simulation time: 0 hr 2 min 24 sec) 
Heartbeat CPU 0 instructions: 70000001 cycles: 27559042 heartbeat IPC: 2.61554 cumulative IPC: 2.54 (Simulation time: 0 hr 2 min 47 sec) 
Heartbeat CPU 0 instructions: 80000002 cycles: 31425235 heartbeat IPC: 2.58652 cumulative IPC: 2.54572 (Simulation time: 0 hr 3 min 11 sec) 
Heartbeat CPU 0 instructions: 90000001 cycles: 35322376 heartbeat IPC: 2.56598 cumulative IPC: 2.54796 (Simulation time: 0 hr 3 min 35 sec) 
Heartbeat CPU 0 instructions: 100000001 cycles: 39255091 heartbeat IPC: 2.54277 cumulative IPC: 2.54744 (Simulation time: 0 hr 3 min 59 sec) 

Warmup complete CPU 0 instructions: 100000001 cycles: 39255091 (Simulation time: 0 hr 3 min 59 sec) 

Heartbeat CPU 0 instructions: 110000000 cycles: 49670039 heartbeat IPC: 0.960158 cumulative IPC: 0.960158 (Simulation time: 0 hr 4 min 17 sec) 
Heartbeat CPU 0 instructions: 120000002 cycles: 59930579 heartbeat IPC: 0.974608 cumulative IPC: 0.967329 (Simulation time: 0 hr 4 min 35 sec) 
Heartbeat CPU 0 instructions: 130000001 cycles: 70301882 heartbeat IPC: 0.964199 cumulative IPC: 0.966283 (Simulation time: 0 hr 4 min 53 sec) 
Heartbeat CPU 0 instructions: 140000002 cycles: 80652156 heartbeat IPC: 0.966158 cumulative IPC: 0.966252 (Simulation time: 0 hr 5 min 11 sec) 
Heartbeat CPU 0 instructions: 150000002 cycles: 90917550 heartbeat IPC: 0.974147 cumulative IPC: 0.967821 (Simulation time: 0 hr 5 min 28 sec) 
Heartbeat CPU 0 instructions: 160000001 cycles: 101249119 heartbeat IPC: 0.967907 cumulative IPC: 0.967835 (Simulation time: 0 hr 5 min 46 sec) 
Heartbeat CPU 0 instructions: 170000001 cycles: 111620534 heartbeat IPC: 0.964189 cumulative IPC: 0.967313 (Simulation time: 0 hr 6 min 4 sec) 
Heartbeat CPU 0 instructions: 180000002 cycles: 122072356 heartbeat IPC: 0.956771 cumulative IPC: 0.965982 (Simulation time: 0 hr 6 min 22 sec) 
Heartbeat CPU 0 instructions: 190000003 cycles: 132529981 heartbeat IPC: 0.95624 cumulative IPC: 0.96489 (Simulation time: 0 hr 6 min 40 sec) 
Heartbeat CPU 0 instructions: 200000000 cycles: 143156547 heartbeat IPC: 0.941037 cumulative IPC: 0.96245 (Simulation time: 0 hr 6 min 58 sec) 
Heartbeat CPU 0 instructions: 210000002 cycles: 153516945 heartbeat IPC: 0.965214 cumulative IPC: 0.962701 (Simulation time: 0 hr 7 min 16 sec) 
Heartbeat CPU 0 instructions: 220000000 cycles: 164065361 heartbeat IPC: 0.948009 cumulative IPC: 0.961459 (Simulation time: 0 hr 7 min 34 sec) 
Heartbeat CPU 0 instructions: 230000003 cycles: 174567863 heartbeat IPC: 0.952154 cumulative IPC: 0.960737 (Simulation time: 0 hr 7 min 52 sec) 
Heartbeat CPU 0 instructions: 240000000 cycles: 184909976 heartbeat IPC: 0.96692 cumulative IPC: 0.961176 (Simulation time: 0 hr 8 min 10 sec) 
Heartbeat CPU 0 instructions: 250000000 cycles: 195189358 heartbeat IPC: 0.972821 cumulative IPC: 0.961944 (Simulation time: 0 hr 8 min 28 sec) 
Heartbeat CPU 0 instructions: 260000000 cycles: 205481325 heartbeat IPC: 0.971632 cumulative IPC: 0.962544 (Simulation time: 0 hr 8 min 46 sec) 
Heartbeat CPU 0 instructions: 270000003 cycles: 215789651 heartbeat IPC: 0.97009 cumulative IPC: 0.962984 (Simulation time: 0 hr 9 min 4 sec) 
Heartbeat CPU 0 instructions: 280000002 cycles: 226255603 heartbeat IPC: 0.955479 cumulative IPC: 0.962564 (Simulation time: 0 hr 9 min 22 sec) 
Heartbeat CPU 0 instructions: 290000000 cycles: 236672205 heartbeat IPC: 0.960006 cumulative IPC: 0.962429 (Simulation time: 0 hr 9 min 41 sec) 
Heartbeat CPU 0 instructions: 300000002 cycles: 247059720 heartbeat IPC: 0.962694 cumulative IPC: 0.962442 (Simulation time: 0 hr 9 min 59 sec) 
Heartbeat CPU 0 instructions: 310000000 cycles: 257483498 heartbeat IPC: 0.959345 cumulative IPC: 0.962295 (Simulation time: 0 hr 10 min 17 sec) 
Heartbeat CPU 0 instructions: 320000000 cycles: 268083300 heartbeat IPC: 0.943414 cumulative IPC: 0.96142 (Simulation time: 0 hr 10 min 35 sec) 
Heartbeat CPU 0 instructions: 330000000 cycles: 278715526 heartbeat IPC: 0.940537 cumulative IPC: 0.960493 (Simulation time: 0 hr 10 min 53 sec) 
Heartbeat CPU 0 instructions: 340000003 cycles: 289117990 heartbeat IPC: 0.961311 cumulative IPC: 0.960527 (Simulation time: 0 hr 11 min 11 sec) 
Heartbeat CPU 0 instructions: 350000000 cycles: 299549771 heartbeat IPC: 0.958609 cumulative IPC: 0.96045 (Simulation time: 0 hr 11 min 29 sec) 
Heartbeat CPU 0 instructions: 360000003 cycles: 309952838 heartbeat IPC: 0.961255 cumulative IPC: 0.960481 (Simulation time: 0 hr 11 min 47 sec) 
Heartbeat CPU 0 instructions: 370000000 cycles: 320379776 heartbeat IPC: 0.959054 cumulative IPC: 0.960428 (Simulation time: 0 hr 12 min 5 sec) 
Heartbeat CPU 0 instructions: 380000003 cycles: 330794894 heartbeat IPC: 0.960143 cumulative IPC: 0.960418 (Simulation time: 0 hr 12 min 23 sec) 
Heartbeat CPU 0 instructions: 390000002 cycles: 341268293 heartbeat IPC: 0.9548 cumulative IPC: 0.960223 (Simulation time: 0 hr 12 min 41 sec) 
Heartbeat CPU 0 instructions: 400000000 cycles: 351799872 heartbeat IPC: 0.949525 cumulative IPC: 0.959862 (Simulation time: 0 hr 12 min 59 sec) 
Heartbeat CPU 0 instructions: 410000001 cycles: 362553874 heartbeat IPC: 0.929886 cumulative IPC: 0.958865 (Simulation time: 0 hr 13 min 17 sec) 
Heartbeat CPU 0 instructions: 420000003 cycles: 373073634 heartbeat IPC: 0.950592 cumulative IPC: 0.958605 (Simulation time: 0 hr 13 min 35 sec) 
Heartbeat CPU 0 instructions: 430000001 cycles: 383677167 heartbeat IPC: 0.943082 cumulative IPC: 0.958127 (Simulation time: 0 hr 13 min 53 sec) 
Heartbeat CPU 0 instructions: 440000000 cycles: 394170236 heartbeat IPC: 0.95301 cumulative IPC: 0.957975 (Simulation time: 0 hr 14 min 11 sec) 
Heartbeat CPU 0 instructions: 450000003 cycles: 404765515 heartbeat IPC: 0.943817 cumulative IPC: 0.957565 (Simulation time: 0 hr 14 min 29 sec) 
Heartbeat CPU 0 instructions: 460000003 cycles: 415369433 heartbeat IPC: 0.943048 cumulative IPC: 0.957156 (Simulation time: 0 hr 14 min 47 sec) 
Heartbeat CPU 0 instructions: 470000000 cycles: 425990412 heartbeat IPC: 0.941532 cumulative IPC: 0.956727 (Simulation time: 0 hr 15 min 5 sec) 
Heartbeat CPU 0 instructions: 480000002 cycles: 436565788 heartbeat IPC: 0.945593 cumulative IPC: 0.95643 (Simulation time: 0 hr 15 min 23 sec) 
Heartbeat CPU 0 instructions: 490000000 cycles: 446878569 heartbeat IPC: 0.96967 cumulative IPC: 0.956765 (Simulation time: 0 hr 15 min 41 sec) 
Heartbeat CPU 0 instructions: 500000001 cycles: 457172042 heartbeat IPC: 0.971489 cumulative IPC: 0.957128 (Simulation time: 0 hr 15 min 59 sec) 
Heartbeat CPU 0 instructions: 510000000 cycles: 467394491 heartbeat IPC: 0.978239 cumulative IPC: 0.957632 (Simulation time: 0 hr 16 min 17 sec) 
Heartbeat CPU 0 instructions: 520000001 cycles: 477631595 heartbeat IPC: 0.976839 cumulative IPC: 0.958081 (Simulation time: 0 hr 16 min 35 sec) 
Heartbeat CPU 0 instructions: 530000001 cycles: 487982991 heartbeat IPC: 0.966053 cumulative IPC: 0.958264 (Simulation time: 0 hr 16 min 53 sec) 
Heartbeat CPU 0 instructions: 540000003 cycles: 498351109 heartbeat IPC: 0.964495 cumulative IPC: 0.958405 (Simulation time: 0 hr 17 min 11 sec) 
Heartbeat CPU 0 instructions: 550000000 cycles: 508648529 heartbeat IPC: 0.971117 cumulative IPC: 0.958684 (Simulation time: 0 hr 17 min 29 sec) 
Heartbeat CPU 0 instructions: 560000002 cycles: 518871310 heartbeat IPC: 0.978208 cumulative IPC: 0.9591 (Simulation time: 0 hr 17 min 47 sec) 
Heartbeat CPU 0 instructions: 570000000 cycles: 529003508 heartbeat IPC: 0.986952 cumulative IPC: 0.959676 (Simulation time: 0 hr 18 min 5 sec) 
Heartbeat CPU 0 instructions: 580000000 cycles: 539254147 heartbeat IPC: 0.975549 cumulative IPC: 0.960002 (Simulation time: 0 hr 18 min 23 sec) 
Heartbeat CPU 0 instructions: 590000000 cycles: 549630404 heartbeat IPC: 0.963739 cumulative IPC: 0.960078 (Simulation time: 0 hr 18 min 41 sec) 
Heartbeat CPU 0 instructions: 600000000 cycles: 559916597 heartbeat IPC: 0.972177 cumulative IPC: 0.960317 (Simulation time: 0 hr 18 min 59 sec) 
Heartbeat CPU 0 instructions: 610000002 cycles: 570314865 heartbeat IPC: 0.961699 cumulative IPC: 0.960344 (Simulation time: 0 hr 19 min 17 sec) 
Heartbeat CPU 0 instructions: 620000001 cycles: 580652999 heartbeat IPC: 0.967292 cumulative IPC: 0.960477 (Simulation time: 0 hr 19 min 35 sec) 
Heartbeat CPU 0 instructions: 630000000 cycles: 590946158 heartbeat IPC: 0.971519 cumulative IPC: 0.960683 (Simulation time: 0 hr 19 min 53 sec) 
Heartbeat CPU 0 instructions: 640000001 cycles: 601224284 heartbeat IPC: 0.97294 cumulative IPC: 0.960907 (Simulation time: 0 hr 20 min 11 sec) 
Heartbeat CPU 0 instructions: 650000000 cycles: 611492832 heartbeat IPC: 0.973847 cumulative IPC: 0.961139 (Simulation time: 0 hr 20 min 29 sec) 
Heartbeat CPU 0 instructions: 660000000 cycles: 621725651 heartbeat IPC: 0.977248 cumulative IPC: 0.961422 (Simulation time: 0 hr 20 min 47 sec) 
Heartbeat CPU 0 instructions: 670000000 cycles: 631830234 heartbeat IPC: 0.98965 cumulative IPC: 0.961903 (Simulation time: 0 hr 21 min 5 sec) 
Heartbeat CPU 0 instructions: 680000001 cycles: 642094188 heartbeat IPC: 0.974284 cumulative IPC: 0.962114 (Simulation time: 0 hr 21 min 23 sec) 
Heartbeat CPU 0 instructions: 690000001 cycles: 652475075 heartbeat IPC: 0.963309 cumulative IPC: 0.962134 (Simulation time: 0 hr 21 min 41 sec) 
Heartbeat CPU 0 instructions: 700000000 cycles: 662930830 heartbeat IPC: 0.956411 cumulative IPC: 0.962038 (Simulation time: 0 hr 21 min 59 sec) 
Heartbeat CPU 0 instructions: 710000001 cycles: 673151833 heartbeat IPC: 0.978378 cumulative IPC: 0.962302 (Simulation time: 0 hr 22 min 17 sec) 
Heartbeat CPU 0 instructions: 720000000 cycles: 683397195 heartbeat IPC: 0.976051 cumulative IPC: 0.962521 (Simulation time: 0 hr 22 min 36 sec) 
Heartbeat CPU 0 instructions: 730000000 cycles: 693620387 heartbeat IPC: 0.978168 cumulative IPC: 0.962765 (Simulation time: 0 hr 22 min 54 sec) 
Heartbeat CPU 0 instructions: 740000000 cycles: 703896865 heartbeat IPC: 0.973096 cumulative IPC: 0.962925 (Simulation time: 0 hr 23 min 12 sec) 
Heartbeat CPU 0 instructions: 750000000 cycles: 714228573 heartbeat IPC: 0.967894 cumulative IPC: 0.963001 (Simulation time: 0 hr 23 min 30 sec) 
Heartbeat CPU 0 instructions: 760000001 cycles: 724519054 heartbeat IPC: 0.971772 cumulative IPC: 0.963133 (Simulation time: 0 hr 23 min 48 sec) 
Heartbeat CPU 0 instructions: 770000000 cycles: 734967217 heartbeat IPC: 0.957106 cumulative IPC: 0.963042 (Simulation time: 0 hr 24 min 6 sec) 
Heartbeat CPU 0 instructions: 780000000 cycles: 745485910 heartbeat IPC: 0.950688 cumulative IPC: 0.962858 (Simulation time: 0 hr 24 min 24 sec) 
Heartbeat CPU 0 instructions: 790000001 cycles: 755916992 heartbeat IPC: 0.958673 cumulative IPC: 0.962797 (Simulation time: 0 hr 24 min 42 sec) 
Heartbeat CPU 0 instructions: 800000001 cycles: 766270434 heartbeat IPC: 0.965862 cumulative IPC: 0.962841 (Simulation time: 0 hr 25 min 0 sec) 
Heartbeat CPU 0 instructions: 810000000 cycles: 776550827 heartbeat IPC: 0.972725 cumulative IPC: 0.962979 (Simulation time: 0 hr 25 min 18 sec) 
Heartbeat CPU 0 instructions: 820000000 cycles: 786759911 heartbeat IPC: 0.97952 cumulative IPC: 0.963205 (Simulation time: 0 hr 25 min 36 sec) 
Heartbeat CPU 0 instructions: 830000000 cycles: 796853183 heartbeat IPC: 0.990759 cumulative IPC: 0.963572 (Simulation time: 0 hr 25 min 54 sec) 
Heartbeat CPU 0 instructions: 840000000 cycles: 807076759 heartbeat IPC: 0.978131 cumulative IPC: 0.963765 (Simulation time: 0 hr 26 min 13 sec) 
Heartbeat CPU 0 instructions: 850000000 cycles: 817523883 heartbeat IPC: 0.957201 cumulative IPC: 0.963677 (Simulation time: 0 hr 26 min 30 sec) 
Heartbeat CPU 0 instructions: 860000000 cycles: 827972113 heartbeat IPC: 0.9571 cumulative IPC: 0.96359 (Simulation time: 0 hr 26 min 48 sec) 
Heartbeat CPU 0 instructions: 870000000 cycles: 838283026 heartbeat IPC: 0.969846 cumulative IPC: 0.963671 (Simulation time: 0 hr 27 min 6 sec) 
Heartbeat CPU 0 instructions: 880000000 cycles: 848692458 heartbeat IPC: 0.960667 cumulative IPC: 0.963632 (Simulation time: 0 hr 27 min 24 sec) 
Heartbeat CPU 0 instructions: 890000003 cycles: 859166998 heartbeat IPC: 0.954696 cumulative IPC: 0.963518 (Simulation time: 0 hr 27 min 42 sec) 
Heartbeat CPU 0 instructions: 900000000 cycles: 869627317 heartbeat IPC: 0.955993 cumulative IPC: 0.963423 (Simulation time: 0 hr 28 min 0 sec) 
Heartbeat CPU 0 instructions: 910000002 cycles: 880141926 heartbeat IPC: 0.951058 cumulative IPC: 0.963269 (Simulation time: 0 hr 28 min 18 sec) 
Heartbeat CPU 0 instructions: 920000002 cycles: 890605602 heartbeat IPC: 0.955687 cumulative IPC: 0.963176 (Simulation time: 0 hr 28 min 36 sec) 
Heartbeat CPU 0 instructions: 930000001 cycles: 900948785 heartbeat IPC: 0.96682 cumulative IPC: 0.963219 (Simulation time: 0 hr 28 min 54 sec) 
Heartbeat CPU 0 instructions: 940000000 cycles: 911358893 heartbeat IPC: 0.960605 cumulative IPC: 0.963188 (Simulation time: 0 hr 29 min 12 sec) 
Heartbeat CPU 0 instructions: 950000000 cycles: 921758045 heartbeat IPC: 0.961617 cumulative IPC: 0.96317 (Simulation time: 0 hr 29 min 30 sec) 
Heartbeat CPU 0 instructions: 960000001 cycles: 932131327 heartbeat IPC: 0.964015 cumulative IPC: 0.963179 (Simulation time: 0 hr 29 min 48 sec) 
Heartbeat CPU 0 instructions: 970000002 cycles: 942460744 heartbeat IPC: 0.968109 cumulative IPC: 0.963236 (Simulation time: 0 hr 30 min 6 sec) 
Heartbeat CPU 0 instructions: 980000000 cycles: 952829022 heartbeat IPC: 0.96448 cumulative IPC: 0.96325 (Simulation time: 0 hr 30 min 24 sec) 
Heartbeat CPU 0 instructions: 990000000 cycles: 963112930 heartbeat IPC: 0.972393 cumulative IPC: 0.963352 (Simulation time: 0 hr 30 min 42 sec) 
Heartbeat CPU 0 instructions: 1000000002 cycles: 973745230 heartbeat IPC: 0.94053 cumulative IPC: 0.963092 (Simulation time: 0 hr 31 min 0 sec) 
Heartbeat CPU 0 instructions: 1010000003 cycles: 984045432 heartbeat IPC: 0.970855 cumulative IPC: 0.963177 (Simulation time: 0 hr 31 min 18 sec) 
Heartbeat CPU 0 instructions: 1020000001 cycles: 994444323 heartbeat IPC: 0.961641 cumulative IPC: 0.96316 (Simulation time: 0 hr 31 min 36 sec) 
Heartbeat CPU 0 instructions: 1030000001 cycles: 1004915970 heartbeat IPC: 0.95496 cumulative IPC: 0.963071 (Simulation time: 0 hr 31 min 54 sec) 
Heartbeat CPU 0 instructions: 1040000002 cycles: 1015443342 heartbeat IPC: 0.949905 cumulative IPC: 0.962929 (Simulation time: 0 hr 32 min 11 sec) 
Heartbeat CPU 0 instructions: 1050000001 cycles: 1025910218 heartbeat IPC: 0.955395 cumulative IPC: 0.962849 (Simulation time: 0 hr 32 min 29 sec) 
Heartbeat CPU 0 instructions: 1060000000 cycles: 1036517584 heartbeat IPC: 0.942741 cumulative IPC: 0.962635 (Simulation time: 0 hr 32 min 47 sec) 
Heartbeat CPU 0 instructions: 1070000000 cycles: 1047093305 heartbeat IPC: 0.945562 cumulative IPC: 0.962456 (Simulation time: 0 hr 33 min 5 sec) 
Heartbeat CPU 0 instructions: 1080000003 cycles: 1057643469 heartbeat IPC: 0.947853 cumulative IPC: 0.962305 (Simulation time: 0 hr 33 min 23 sec) 
Heartbeat CPU 0 instructions: 1090000001 cycles: 1068109770 heartbeat IPC: 0.955447 cumulative IPC: 0.962235 (Simulation time: 0 hr 33 min 41 sec) 
Heartbeat CPU 0 instructions: 1100000000 cycles: 1078482383 heartbeat IPC: 0.964077 cumulative IPC: 0.962253 (Simulation time: 0 hr 33 min 59 sec) 
Finished CPU 0 instructions: 1000000000 cycles: 1039227293 cumulative IPC: 0.962253 (Simulation time: 0 hr 33 min 59 sec) 

ChampSim completed all CPUs

Region of Interest Statistics

CPU 0 cumulative IPC: 0.962253 instructions: 1000000000 cycles: 1039227293
L1D TOTAL     ACCESS:  294239993  HIT:  293593909  MISS:     646084
L1D LOAD      ACCESS:  178384317  HIT:  177910651  MISS:     473666
L1D RFO       ACCESS:  115855676  HIT:  115683258  MISS:     172418
L1D PREFETCH  ACCESS:          0  HIT:          0  MISS:          0
L1D WRITEBACK ACCESS:          0  HIT:          0  MISS:          0
L1D PREFETCH  REQUESTED:          0  ISSUED:          0  USEFUL:          0  USELESS:          0
L1D AVERAGE MISS LATENCY: 89.4477 cycles
L1I TOTAL     ACCESS:  174527319  HIT:  173571653  MISS:     955666
L1I LOAD      ACCESS:  174527319  HIT:  173571653  MISS:     955666
L1I RFO       ACCESS:          0  HIT:          0  MISS:          0
L1I PREFETCH  ACCESS:          0  HIT:          0  MISS:          0
L1I WRITEBACK ACCESS:          0  HIT:          0  MISS:          0
L1I PREFETCH  REQUESTED:          0  ISSUED:          0  USEFUL:          0  USELESS:          0
L1I AVERAGE MISS LATENCY: 15.1284 cycles
L2C TOTAL     ACCESS:    1994506  HIT:    1682651  MISS:     311855
L2C LOAD      ACCESS:    1429329  HIT:    1138819  MISS:     290510
L2C RFO       ACCESS:     172412  HIT:     154941  MISS:      17471
L2C PREFETCH  ACCESS:          0  HIT:          0  MISS:          0
L2C WRITEBACK ACCESS:     392765  HIT:     388891  MISS:       3874
L2C PREFETCH  REQUESTED:          0  ISSUED:          0  USEFUL:          0  USELESS:          0
L2C AVERAGE MISS LATENCY: 153.244 cycles
LLC TOTAL     ACCESS:     519546  HIT:     129282  MISS:     390264
LLC LOAD      ACCESS:     290510  HIT:      31274  MISS:     259236
LLC RFO       ACCESS:      17471  HIT:      15418  MISS:       2053
LLC PREFETCH  ACCESS:          0  HIT:          0  MISS:          0
LLC WRITEBACK ACCESS:     211565  HIT:      82590  MISS:     128975
LLC PREFETCH  REQUESTED:          0  ISSUED:          0  USEFUL:          0  USELESS:          0
LLC AVERAGE MISS LATENCY: 98.6786 cycles
Major fault: 0 Minor fault: 161415
==============================
Perceptron RRIP Stats:
   Num Updates: 538995
   Num Trains:  72024
==============================
perceptron #0: -5 1 -3 5 -1 1 -3 1 3 -5 -1 -9 -1 3 -1 5 -1 -1 -3 1 -9 

perceptron #1: 2 2 -4 -2 -4 6 2 0 0 2 -2 6 -2 0 2 0 -2 -4 2 0 -16 

perceptron #2: 2 -2 4 2 2 0 6 2 -4 -2 -2 -4 -2 0 2 0 -2 0 6 -4 -20 

perceptron #3: 3 -1 -3 -7 -3 3 1 -1 3 1 -1 -1 3 3 1 -5 1 -5 -1 -3 -17 

perceptron #4: 3 1 1 -1 -7 3 1 -1 7 1 1 3 -9 1 1 -5 1 -1 1 -3 -15 

perceptron #5: 0 -2 0 0 2 2 0 -4 2 2 4 0 0 -4 4 0 0 4 6 -6 -12 

perceptron #6: 4 0 4 0 -2 2 2 -4 6 -4 -2 -2 -2 4 0 0 0 -4 -2 -2 -16 

perceptron #7: 4 2 -4 2 0 4 0 4 2 -6 -4 0 4 -4 2 4 4 -6 0 0 -14 

perceptron #8: -3 -1 5 1 -3 7 -1 1 7 -3 1 -1 1 1 -1 3 1 -1 1 3 -15 

perceptron #9: -1 1 1 3 -3 -1 -3 -1 9 -3 -5 -9 -5 -1 1 -1 -1 -1 3 5 -11 

perceptron #10: 2 4 2 -4 -2 4 6 2 4 -2 0 0 4 4 -2 4 0 0 0 -2 -16 

perceptron #11: 3 1 -3 1 3 7 5 1 5 -1 -5 -5 1 -1 3 3 -1 -1 1 -5 -17 

perceptron #12: 2 0 -2 -2 -4 2 4 0 2 0 2 -2 0 -2 0 2 0 4 0 -4 -16 

perceptron #13: 3 -5 -1 -1 1 3 -1 -3 5 1 1 -5 -1 -3 -5 -5 -5 -1 5 -5 -17 

perceptron #14: -3 -1 1 -1 -1 1 3 3 3 -1 -1 -1 -5 3 -1 3 -1 3 5 -3 -17 

perceptron #15: 0 -2 2 0 -2 6 2 -2 4 -2 2 0 4 -8 2 -2 -2 -4 4 4 -16 

perceptron #16: 0 2 4 -2 -2 2 -2 -2 0 2 -2 0 -4 0 -2 0 -2 2 2 -4 -18 

perceptron #17: -1 -3 3 -5 -1 3 -5 1 3 -1 1 -3 1 1 -5 1 5 1 -3 -5 -17 

perceptron #18: 1 -1 -1 -1 -5 5 -1 -3 9 1 -3 -9 3 1 -5 5 1 1 -1 -7 -13 

perceptron #19: -1 -3 -1 1 -5 -3 5 -1 1 -7 1 1 1 -3 -3 1 -1 -3 3 -1 -15 

perceptron #20: -1 1 -3 5 3 3 9 1 7 -3 -3 -1 -5 1 5 -5 -3 -3 3 -5 -15 

perceptron #21: -2 -2 -2 -2 0 -2 -2 -4 -2 2 -2 0 -2 0 0 2 0 0 -4 -4 -16 

perceptron #22: 3 -3 1 -1 -1 3 -1 -1 5 -3 1 -1 1 -5 1 1 1 3 1 -5 -13 

perceptron #23: 1 -5 -1 -1 -3 5 3 -1 1 -1 5 -3 5 1 1 -1 1 5 -1 -1 -19 

perceptron #24: -3 -1 -1 3 1 3 -1 1 3 -5 -1 1 -1 -1 3 1 1 -3 3 1 -15 

perceptron #25: 1 -1 3 1 1 1 -1 3 5 -1 -1 -1 -5 3 -1 -3 3 3 -3 -3 -17 

perceptron #26: 5 -5 1 -5 -1 3 7 5 -1 -3 -1 -3 -1 -1 -1 -5 1 1 -3 -5 -15 

perceptron #27: -6 -4 2 4 -2 4 0 2 0 -2 -4 -6 0 2 -4 -2 0 2 0 -2 -14 

perceptron #28: 1 -3 1 3 -3 -1 3 -1 7 -1 3 1 1 3 5 3 -1 1 3 -5 -17 

perceptron #29: 1 1 -3 3 3 3 -1 3 3 -1 -1 -1 9 -7 -1 1 1 -1 7 -1 -9 

perceptron #30: -4 -2 -2 -2 -2 2 0 -8 0 -4 -2 6 -2 4 -4 0 -2 2 -2 -4 -18 

perceptron #31: 1 -1 -1 3 -3 9 -1 1 5 1 3 3 -7 3 1 -3 -3 1 1 -5 -17 


DRAM Statistics
 CHANNEL 0
 RQ ROW_BUFFER_HIT:      65017  ROW_BUFFER_MISS:     196272
 DBUS_CONGESTED:      48495
 WQ ROW_BUFFER_HIT:       4934  ROW_BUFFER_MISS:     164896  FULL:          0

 AVG_CONGESTED_CYCLE: 6

CPU 0 Branch Prediction Accuracy: 90.7181% MPKI: 13.7272 Average ROB Occupancy at Mispredict: 32.3774

Branch types
NOT_BRANCH: 852108097 85.2108%
BRANCH_DIRECT_JUMP: 8658948 0.865895%
BRANCH_INDIRECT: 862270 0.086227%
BRANCH_CONDITIONAL: 98627220 9.86272%
BRANCH_DIRECT_CALL: 19871562 1.98716%
BRANCH_INDIRECT_CALL: 0 0%
BRANCH_RETURN: 19871559 1.98716%
BRANCH_OTHER: 0 0%

