
*** ChampSim Multicore Out-of-Order Simulator ***

Warmup Instructions: 100000000
Simulation Instructions: 1000000000
Number of CPUs: 1
LLC sets: 2048
LLC ways: 16
Off-chip DRAM Size: 4096 MB Channels: 1 Width: 64-bit Data Rate: 3200 MT/s

CPU 0 runs /scratch/user/kevin.weston/dpc3-traces/631.champsimtrace.xz
CPU 0 Bimodal branch predictor
Initialize RRPV
Initialize PRRIP state

*** ChampSim Multicore Out-of-Order Simulator ***

Warmup Instructions: 100000000
Simulation Instructions: 1000000000
Number of CPUs: 1
LLC sets: 2048
LLC ways: 16
Off-chip DRAM Size: 4096 MB Channels: 1 Width: 64-bit Data Rate: 3200 MT/s

CPU 0 runs /scratch/user/kevin.weston/dpc3-traces/631.champsimtrace.xz
CPU 0 Bimodal branch predictor
Initialize RRPV
Initialize PRRIP state
Heartbeat CPU 0 instructions: 10000000 cycles: 3950305 heartbeat IPC: 2.53145 cumulative IPC: 2.53145 (Simulation time: 0 hr 0 min 24 sec) 
Heartbeat CPU 0 instructions: 20000000 cycles: 8025402 heartbeat IPC: 2.45393 cumulative IPC: 2.49209 (Simulation time: 0 hr 0 min 48 sec) 
Heartbeat CPU 0 instructions: 30000000 cycles: 11975766 heartbeat IPC: 2.53141 cumulative IPC: 2.50506 (Simulation time: 0 hr 1 min 12 sec) 
Heartbeat CPU 0 instructions: 40000001 cycles: 15928097 heartbeat IPC: 2.53015 cumulative IPC: 2.51129 (Simulation time: 0 hr 1 min 36 sec) 
Heartbeat CPU 0 instructions: 50000001 cycles: 19878100 heartbeat IPC: 2.53164 cumulative IPC: 2.51533 (Simulation time: 0 hr 2 min 1 sec) 
Heartbeat CPU 0 instructions: 60000001 cycles: 23735735 heartbeat IPC: 2.59226 cumulative IPC: 2.52783 (Simulation time: 0 hr 2 min 24 sec) 
Heartbeat CPU 0 instructions: 70000001 cycles: 27559042 heartbeat IPC: 2.61554 cumulative IPC: 2.54 (Simulation time: 0 hr 2 min 48 sec) 
Heartbeat CPU 0 instructions: 80000002 cycles: 31425235 heartbeat IPC: 2.58652 cumulative IPC: 2.54572 (Simulation time: 0 hr 3 min 12 sec) 
Heartbeat CPU 0 instructions: 90000001 cycles: 35322376 heartbeat IPC: 2.56598 cumulative IPC: 2.54796 (Simulation time: 0 hr 3 min 37 sec) 
Heartbeat CPU 0 instructions: 100000001 cycles: 39255091 heartbeat IPC: 2.54277 cumulative IPC: 2.54744 (Simulation time: 0 hr 4 min 1 sec) 

Warmup complete CPU 0 instructions: 100000001 cycles: 39255091 (Simulation time: 0 hr 4 min 1 sec) 

Heartbeat CPU 0 instructions: 110000000 cycles: 49666455 heartbeat IPC: 0.960489 cumulative IPC: 0.960489 (Simulation time: 0 hr 4 min 18 sec) 
Heartbeat CPU 0 instructions: 120000002 cycles: 59924568 heartbeat IPC: 0.974838 cumulative IPC: 0.96761 (Simulation time: 0 hr 4 min 35 sec) 
Heartbeat CPU 0 instructions: 130000001 cycles: 70297334 heartbeat IPC: 0.964063 cumulative IPC: 0.966425 (Simulation time: 0 hr 4 min 53 sec) 
Heartbeat CPU 0 instructions: 140000002 cycles: 80644164 heartbeat IPC: 0.96648 cumulative IPC: 0.966439 (Simulation time: 0 hr 5 min 10 sec) 
Heartbeat CPU 0 instructions: 150000002 cycles: 90908454 heartbeat IPC: 0.974252 cumulative IPC: 0.967991 (Simulation time: 0 hr 5 min 27 sec) 
Heartbeat CPU 0 instructions: 160000001 cycles: 101238853 heartbeat IPC: 0.968017 cumulative IPC: 0.967995 (Simulation time: 0 hr 5 min 44 sec) 
Heartbeat CPU 0 instructions: 170000001 cycles: 111607113 heartbeat IPC: 0.964482 cumulative IPC: 0.967492 (Simulation time: 0 hr 6 min 1 sec) 
Heartbeat CPU 0 instructions: 180000002 cycles: 122057827 heartbeat IPC: 0.956873 cumulative IPC: 0.966152 (Simulation time: 0 hr 6 min 18 sec) 
Heartbeat CPU 0 instructions: 190000003 cycles: 132520673 heartbeat IPC: 0.955763 cumulative IPC: 0.964986 (Simulation time: 0 hr 6 min 36 sec) 
Heartbeat CPU 0 instructions: 200000000 cycles: 143151467 heartbeat IPC: 0.940663 cumulative IPC: 0.962497 (Simulation time: 0 hr 6 min 53 sec) 
Heartbeat CPU 0 instructions: 210000002 cycles: 153517365 heartbeat IPC: 0.964702 cumulative IPC: 0.962697 (Simulation time: 0 hr 7 min 10 sec) 
Heartbeat CPU 0 instructions: 220000000 cycles: 164067533 heartbeat IPC: 0.947852 cumulative IPC: 0.961443 (Simulation time: 0 hr 7 min 27 sec) 
Heartbeat CPU 0 instructions: 230000003 cycles: 174573036 heartbeat IPC: 0.951882 cumulative IPC: 0.9607 (Simulation time: 0 hr 7 min 44 sec) 
Heartbeat CPU 0 instructions: 240000000 cycles: 184921811 heartbeat IPC: 0.966298 cumulative IPC: 0.961098 (Simulation time: 0 hr 8 min 2 sec) 
Heartbeat CPU 0 instructions: 250000000 cycles: 195205496 heartbeat IPC: 0.972414 cumulative IPC: 0.961844 (Simulation time: 0 hr 8 min 19 sec) 
Heartbeat CPU 0 instructions: 260000000 cycles: 205496140 heartbeat IPC: 0.971756 cumulative IPC: 0.962458 (Simulation time: 0 hr 8 min 36 sec) 
Heartbeat CPU 0 instructions: 270000003 cycles: 215809695 heartbeat IPC: 0.969598 cumulative IPC: 0.962875 (Simulation time: 0 hr 8 min 53 sec) 
Heartbeat CPU 0 instructions: 280000002 cycles: 226283037 heartbeat IPC: 0.954805 cumulative IPC: 0.962423 (Simulation time: 0 hr 9 min 10 sec) 
Heartbeat CPU 0 instructions: 290000000 cycles: 236700699 heartbeat IPC: 0.959908 cumulative IPC: 0.96229 (Simulation time: 0 hr 9 min 28 sec) 
Heartbeat CPU 0 instructions: 300000002 cycles: 247095234 heartbeat IPC: 0.962044 cumulative IPC: 0.962278 (Simulation time: 0 hr 9 min 45 sec) 
Heartbeat CPU 0 instructions: 310000000 cycles: 257523274 heartbeat IPC: 0.958953 cumulative IPC: 0.962119 (Simulation time: 0 hr 10 min 2 sec) 
Heartbeat CPU 0 instructions: 320000000 cycles: 268126590 heartbeat IPC: 0.943101 cumulative IPC: 0.961238 (Simulation time: 0 hr 10 min 19 sec) 
Heartbeat CPU 0 instructions: 330000000 cycles: 278768060 heartbeat IPC: 0.93972 cumulative IPC: 0.960282 (Simulation time: 0 hr 10 min 36 sec) 
Heartbeat CPU 0 instructions: 340000003 cycles: 289175347 heartbeat IPC: 0.960865 cumulative IPC: 0.960306 (Simulation time: 0 hr 10 min 53 sec) 
Heartbeat CPU 0 instructions: 350000000 cycles: 299609738 heartbeat IPC: 0.958369 cumulative IPC: 0.960229 (Simulation time: 0 hr 11 min 10 sec) 
Heartbeat CPU 0 instructions: 360000003 cycles: 310014592 heartbeat IPC: 0.96109 cumulative IPC: 0.960262 (Simulation time: 0 hr 11 min 27 sec) 
Heartbeat CPU 0 instructions: 370000000 cycles: 320439852 heartbeat IPC: 0.959208 cumulative IPC: 0.960223 (Simulation time: 0 hr 11 min 44 sec) 
Heartbeat CPU 0 instructions: 380000003 cycles: 330856989 heartbeat IPC: 0.959957 cumulative IPC: 0.960213 (Simulation time: 0 hr 12 min 2 sec) 
Heartbeat CPU 0 instructions: 390000002 cycles: 341329131 heartbeat IPC: 0.954914 cumulative IPC: 0.96003 (Simulation time: 0 hr 12 min 19 sec) 
Heartbeat CPU 0 instructions: 400000000 cycles: 351863606 heartbeat IPC: 0.949264 cumulative IPC: 0.959667 (Simulation time: 0 hr 12 min 36 sec) 
Heartbeat CPU 0 instructions: 410000001 cycles: 362622215 heartbeat IPC: 0.929488 cumulative IPC: 0.958663 (Simulation time: 0 hr 12 min 53 sec) 
Heartbeat CPU 0 instructions: 420000003 cycles: 373144042 heartbeat IPC: 0.950405 cumulative IPC: 0.958403 (Simulation time: 0 hr 13 min 10 sec) 
Heartbeat CPU 0 instructions: 430000001 cycles: 383746982 heartbeat IPC: 0.943134 cumulative IPC: 0.957933 (Simulation time: 0 hr 13 min 28 sec) 
Heartbeat CPU 0 instructions: 440000000 cycles: 394238069 heartbeat IPC: 0.95319 cumulative IPC: 0.957792 (Simulation time: 0 hr 13 min 45 sec) 
Heartbeat CPU 0 instructions: 450000003 cycles: 404835655 heartbeat IPC: 0.943611 cumulative IPC: 0.957381 (Simulation time: 0 hr 14 min 2 sec) 
Heartbeat CPU 0 instructions: 460000003 cycles: 415437904 heartbeat IPC: 0.943196 cumulative IPC: 0.956982 (Simulation time: 0 hr 14 min 19 sec) 
Heartbeat CPU 0 instructions: 470000000 cycles: 426059129 heartbeat IPC: 0.941511 cumulative IPC: 0.956557 (Simulation time: 0 hr 14 min 36 sec) 
Heartbeat CPU 0 instructions: 480000002 cycles: 436631544 heartbeat IPC: 0.945858 cumulative IPC: 0.956272 (Simulation time: 0 hr 14 min 54 sec) 
Heartbeat CPU 0 instructions: 490000000 cycles: 446941486 heartbeat IPC: 0.969937 cumulative IPC: 0.956618 (Simulation time: 0 hr 15 min 11 sec) 
Heartbeat CPU 0 instructions: 500000001 cycles: 457239318 heartbeat IPC: 0.971078 cumulative IPC: 0.956974 (Simulation time: 0 hr 15 min 28 sec) 
Heartbeat CPU 0 instructions: 510000000 cycles: 467462140 heartbeat IPC: 0.978203 cumulative IPC: 0.957481 (Simulation time: 0 hr 15 min 45 sec) 
Heartbeat CPU 0 instructions: 520000001 cycles: 477699109 heartbeat IPC: 0.976852 cumulative IPC: 0.957933 (Simulation time: 0 hr 16 min 2 sec) 
Heartbeat CPU 0 instructions: 530000001 cycles: 488054036 heartbeat IPC: 0.965724 cumulative IPC: 0.958113 (Simulation time: 0 hr 16 min 19 sec) 
Heartbeat CPU 0 instructions: 540000003 cycles: 498422496 heartbeat IPC: 0.964464 cumulative IPC: 0.958256 (Simulation time: 0 hr 16 min 36 sec) 
Heartbeat CPU 0 instructions: 550000000 cycles: 508720392 heartbeat IPC: 0.971072 cumulative IPC: 0.958537 (Simulation time: 0 hr 16 min 53 sec) 
Heartbeat CPU 0 instructions: 560000002 cycles: 518945104 heartbeat IPC: 0.978023 cumulative IPC: 0.958953 (Simulation time: 0 hr 17 min 10 sec) 
Heartbeat CPU 0 instructions: 570000000 cycles: 529077288 heartbeat IPC: 0.986954 cumulative IPC: 0.959532 (Simulation time: 0 hr 17 min 28 sec) 
Heartbeat CPU 0 instructions: 580000000 cycles: 539326095 heartbeat IPC: 0.975723 cumulative IPC: 0.959864 (Simulation time: 0 hr 17 min 45 sec) 
Heartbeat CPU 0 instructions: 590000000 cycles: 549703912 heartbeat IPC: 0.963594 cumulative IPC: 0.95994 (Simulation time: 0 hr 18 min 2 sec) 
Heartbeat CPU 0 instructions: 600000000 cycles: 559995355 heartbeat IPC: 0.971681 cumulative IPC: 0.960172 (Simulation time: 0 hr 18 min 19 sec) 
Heartbeat CPU 0 instructions: 610000002 cycles: 570401851 heartbeat IPC: 0.960938 cumulative IPC: 0.960187 (Simulation time: 0 hr 18 min 36 sec) 
Heartbeat CPU 0 instructions: 620000001 cycles: 580739226 heartbeat IPC: 0.967363 cumulative IPC: 0.960324 (Simulation time: 0 hr 18 min 53 sec) 
Heartbeat CPU 0 instructions: 630000000 cycles: 591036223 heartbeat IPC: 0.971157 cumulative IPC: 0.960526 (Simulation time: 0 hr 19 min 10 sec) 
Heartbeat CPU 0 instructions: 640000001 cycles: 601314258 heartbeat IPC: 0.972949 cumulative IPC: 0.960753 (Simulation time: 0 hr 19 min 28 sec) 
Heartbeat CPU 0 instructions: 650000000 cycles: 611584754 heartbeat IPC: 0.973663 cumulative IPC: 0.960985 (Simulation time: 0 hr 19 min 45 sec) 
Heartbeat CPU 0 instructions: 660000000 cycles: 621817495 heartbeat IPC: 0.977255 cumulative IPC: 0.96127 (Simulation time: 0 hr 20 min 2 sec) 
Heartbeat CPU 0 instructions: 670000000 cycles: 631921769 heartbeat IPC: 0.98968 cumulative IPC: 0.961755 (Simulation time: 0 hr 20 min 19 sec) 
Heartbeat CPU 0 instructions: 680000001 cycles: 642186979 heartbeat IPC: 0.974164 cumulative IPC: 0.961966 (Simulation time: 0 hr 20 min 37 sec) 
Heartbeat CPU 0 instructions: 690000001 cycles: 652568463 heartbeat IPC: 0.963253 cumulative IPC: 0.961988 (Simulation time: 0 hr 20 min 54 sec) 
Heartbeat CPU 0 instructions: 700000000 cycles: 663026361 heartbeat IPC: 0.956215 cumulative IPC: 0.961891 (Simulation time: 0 hr 21 min 11 sec) 
Heartbeat CPU 0 instructions: 710000001 cycles: 673245379 heartbeat IPC: 0.978568 cumulative IPC: 0.96216 (Simulation time: 0 hr 21 min 28 sec) 
Heartbeat CPU 0 instructions: 720000000 cycles: 683494919 heartbeat IPC: 0.975653 cumulative IPC: 0.962375 (Simulation time: 0 hr 21 min 45 sec) 
Heartbeat CPU 0 instructions: 730000000 cycles: 693718025 heartbeat IPC: 0.978176 cumulative IPC: 0.962621 (Simulation time: 0 hr 22 min 2 sec) 
Heartbeat CPU 0 instructions: 740000000 cycles: 703993979 heartbeat IPC: 0.973146 cumulative IPC: 0.962784 (Simulation time: 0 hr 22 min 20 sec) 
Heartbeat CPU 0 instructions: 750000000 cycles: 714325707 heartbeat IPC: 0.967892 cumulative IPC: 0.962862 (Simulation time: 0 hr 22 min 37 sec) 
Heartbeat CPU 0 instructions: 760000001 cycles: 724613805 heartbeat IPC: 0.971997 cumulative IPC: 0.962999 (Simulation time: 0 hr 22 min 54 sec) 
Heartbeat CPU 0 instructions: 770000000 cycles: 735063462 heartbeat IPC: 0.956969 cumulative IPC: 0.962909 (Simulation time: 0 hr 23 min 11 sec) 
Heartbeat CPU 0 instructions: 780000000 cycles: 745583675 heartbeat IPC: 0.950551 cumulative IPC: 0.962725 (Simulation time: 0 hr 23 min 28 sec) 
Heartbeat CPU 0 instructions: 790000001 cycles: 756017490 heartbeat IPC: 0.958422 cumulative IPC: 0.962662 (Simulation time: 0 hr 23 min 45 sec) 
Heartbeat CPU 0 instructions: 800000001 cycles: 766370281 heartbeat IPC: 0.965923 cumulative IPC: 0.962709 (Simulation time: 0 hr 24 min 2 sec) 
Heartbeat CPU 0 instructions: 810000000 cycles: 776652290 heartbeat IPC: 0.972573 cumulative IPC: 0.962846 (Simulation time: 0 hr 24 min 19 sec) 
Heartbeat CPU 0 instructions: 820000000 cycles: 786864780 heartbeat IPC: 0.979193 cumulative IPC: 0.963069 (Simulation time: 0 hr 24 min 37 sec) 
Heartbeat CPU 0 instructions: 830000000 cycles: 796956999 heartbeat IPC: 0.990862 cumulative IPC: 0.96344 (Simulation time: 0 hr 24 min 54 sec) 
Heartbeat CPU 0 instructions: 840000000 cycles: 807183724 heartbeat IPC: 0.97783 cumulative IPC: 0.963631 (Simulation time: 0 hr 25 min 12 sec) 
Heartbeat CPU 0 instructions: 850000000 cycles: 817632615 heartbeat IPC: 0.957039 cumulative IPC: 0.963543 (Simulation time: 0 hr 25 min 29 sec) 
Heartbeat CPU 0 instructions: 860000000 cycles: 828079529 heartbeat IPC: 0.95722 cumulative IPC: 0.963459 (Simulation time: 0 hr 25 min 46 sec) 
Heartbeat CPU 0 instructions: 870000000 cycles: 838392582 heartbeat IPC: 0.969645 cumulative IPC: 0.963539 (Simulation time: 0 hr 26 min 4 sec) 
Heartbeat CPU 0 instructions: 880000000 cycles: 848800932 heartbeat IPC: 0.960767 cumulative IPC: 0.963503 (Simulation time: 0 hr 26 min 21 sec) 
Heartbeat CPU 0 instructions: 890000003 cycles: 859275204 heartbeat IPC: 0.954721 cumulative IPC: 0.963391 (Simulation time: 0 hr 26 min 38 sec) 
Heartbeat CPU 0 instructions: 900000000 cycles: 869736820 heartbeat IPC: 0.955875 cumulative IPC: 0.963296 (Simulation time: 0 hr 26 min 56 sec) 
Heartbeat CPU 0 instructions: 910000002 cycles: 880253086 heartbeat IPC: 0.950908 cumulative IPC: 0.963141 (Simulation time: 0 hr 27 min 13 sec) 
Heartbeat CPU 0 instructions: 920000002 cycles: 890716339 heartbeat IPC: 0.955726 cumulative IPC: 0.96305 (Simulation time: 0 hr 27 min 31 sec) 
Heartbeat CPU 0 instructions: 930000001 cycles: 901063477 heartbeat IPC: 0.966451 cumulative IPC: 0.963091 (Simulation time: 0 hr 27 min 48 sec) 
Heartbeat CPU 0 instructions: 940000000 cycles: 911474666 heartbeat IPC: 0.960505 cumulative IPC: 0.96306 (Simulation time: 0 hr 28 min 5 sec) 
Heartbeat CPU 0 instructions: 950000000 cycles: 921869351 heartbeat IPC: 0.96203 cumulative IPC: 0.963048 (Simulation time: 0 hr 28 min 23 sec) 
Heartbeat CPU 0 instructions: 960000001 cycles: 932239181 heartbeat IPC: 0.964336 cumulative IPC: 0.963063 (Simulation time: 0 hr 28 min 40 sec) 
Heartbeat CPU 0 instructions: 970000002 cycles: 942569871 heartbeat IPC: 0.96799 cumulative IPC: 0.963119 (Simulation time: 0 hr 28 min 58 sec) 
Heartbeat CPU 0 instructions: 980000000 cycles: 952937697 heartbeat IPC: 0.964522 cumulative IPC: 0.963135 (Simulation time: 0 hr 29 min 15 sec) 
Heartbeat CPU 0 instructions: 990000000 cycles: 963226467 heartbeat IPC: 0.971933 cumulative IPC: 0.963233 (Simulation time: 0 hr 29 min 33 sec) 
Heartbeat CPU 0 instructions: 1000000002 cycles: 973857008 heartbeat IPC: 0.940686 cumulative IPC: 0.962977 (Simulation time: 0 hr 29 min 50 sec) 
Heartbeat CPU 0 instructions: 1010000003 cycles: 984158854 heartbeat IPC: 0.9707 cumulative IPC: 0.963061 (Simulation time: 0 hr 30 min 8 sec) 
Heartbeat CPU 0 instructions: 1020000001 cycles: 994558846 heartbeat IPC: 0.961539 cumulative IPC: 0.963044 (Simulation time: 0 hr 30 min 26 sec) 
Heartbeat CPU 0 instructions: 1030000001 cycles: 1005031659 heartbeat IPC: 0.954853 cumulative IPC: 0.962956 (Simulation time: 0 hr 30 min 44 sec) 
Heartbeat CPU 0 instructions: 1040000002 cycles: 1015564637 heartbeat IPC: 0.949399 cumulative IPC: 0.962809 (Simulation time: 0 hr 31 min 1 sec) 
Heartbeat CPU 0 instructions: 1050000001 cycles: 1026032537 heartbeat IPC: 0.955301 cumulative IPC: 0.96273 (Simulation time: 0 hr 31 min 19 sec) 
Heartbeat CPU 0 instructions: 1060000000 cycles: 1036639057 heartbeat IPC: 0.942816 cumulative IPC: 0.962518 (Simulation time: 0 hr 31 min 36 sec) 
Heartbeat CPU 0 instructions: 1070000000 cycles: 1047218442 heartbeat IPC: 0.945235 cumulative IPC: 0.962337 (Simulation time: 0 hr 31 min 54 sec) 
Heartbeat CPU 0 instructions: 1080000003 cycles: 1057768609 heartbeat IPC: 0.947853 cumulative IPC: 0.962187 (Simulation time: 0 hr 32 min 12 sec) 
Heartbeat CPU 0 instructions: 1090000001 cycles: 1068239212 heartbeat IPC: 0.955055 cumulative IPC: 0.962114 (Simulation time: 0 hr 32 min 29 sec) 
Heartbeat CPU 0 instructions: 1100000000 cycles: 1078614994 heartbeat IPC: 0.963783 cumulative IPC: 0.962131 (Simulation time: 0 hr 32 min 47 sec) 
Finished CPU 0 instructions: 1000000000 cycles: 1039359904 cumulative IPC: 0.962131 (Simulation time: 0 hr 32 min 47 sec) 

ChampSim completed all CPUs

Region of Interest Statistics

CPU 0 cumulative IPC: 0.962131 instructions: 1000000000 cycles: 1039359904
L1D TOTAL     ACCESS:  294239366  HIT:  293593282  MISS:     646084
L1D LOAD      ACCESS:  178383961  HIT:  177910295  MISS:     473666
L1D RFO       ACCESS:  115855405  HIT:  115682987  MISS:     172418
L1D PREFETCH  ACCESS:          0  HIT:          0  MISS:          0
L1D WRITEBACK ACCESS:          0  HIT:          0  MISS:          0
L1D PREFETCH  REQUESTED:          0  ISSUED:          0  USEFUL:          0  USELESS:          0
L1D AVERAGE MISS LATENCY: 89.6292 cycles
L1I TOTAL     ACCESS:  174527450  HIT:  173571784  MISS:     955666
L1I LOAD      ACCESS:  174527450  HIT:  173571784  MISS:     955666
L1I RFO       ACCESS:          0  HIT:          0  MISS:          0
L1I PREFETCH  ACCESS:          0  HIT:          0  MISS:          0
L1I WRITEBACK ACCESS:          0  HIT:          0  MISS:          0
L1I PREFETCH  REQUESTED:          0  ISSUED:          0  USEFUL:          0  USELESS:          0
L1I AVERAGE MISS LATENCY: 15.1846 cycles
L2C TOTAL     ACCESS:    1994506  HIT:    1682651  MISS:     311855
L2C LOAD      ACCESS:    1429329  HIT:    1138819  MISS:     290510
L2C RFO       ACCESS:     172412  HIT:     154941  MISS:      17471
L2C PREFETCH  ACCESS:          0  HIT:          0  MISS:          0
L2C WRITEBACK ACCESS:     392765  HIT:     388891  MISS:       3874
L2C PREFETCH  REQUESTED:          0  ISSUED:          0  USEFUL:          0  USELESS:          0
L2C AVERAGE MISS LATENCY: 153.792 cycles
LLC TOTAL     ACCESS:     519546  HIT:     129130  MISS:     390416
LLC LOAD      ACCESS:     290510  HIT:      30150  MISS:     260360
LLC RFO       ACCESS:      17471  HIT:      15405  MISS:       2066
LLC PREFETCH  ACCESS:          0  HIT:          0  MISS:          0
LLC WRITEBACK ACCESS:     211565  HIT:      83575  MISS:     127990
LLC PREFETCH  REQUESTED:          0  ISSUED:          0  USEFUL:          0  USELESS:          0
LLC AVERAGE MISS LATENCY: 99.0791 cycles
Major fault: 0 Minor fault: 161415
==============================
Perceptron RRIP Stats:
   Num Updates: 308261
   Num Trains:  39267
==============================
perceptron #0: 0 0 2 0 0 0 0 -2 0 -2 -2 -2 -2 0 0 -12 

perceptron #1: -3 1 1 -1 -1 -1 -3 -3 -3 -1 1 -3 -3 -1 3 -11 

perceptron #2: -2 0 -2 -2 0 -2 -2 0 -2 -2 -2 2 0 -2 4 -8 

perceptron #3: 0 0 -2 2 -2 -2 2 2 -2 0 2 2 0 0 2 -12 

perceptron #4: -1 1 -1 1 1 -1 1 1 1 -1 1 -1 -1 3 1 -13 

perceptron #5: 1 -3 1 -1 -3 -1 -3 3 -1 -1 1 -1 1 3 1 -11 

perceptron #6: 0 2 0 0 2 -2 2 0 -2 -4 0 -2 0 0 0 -10 

perceptron #7: -1 1 1 1 -1 1 1 -1 -1 -1 -3 3 1 1 1 -11 

perceptron #8: -1 -1 3 -1 -3 -1 -1 -1 1 -1 1 -1 -1 -1 -3 -11 

perceptron #9: 0 2 0 0 0 2 0 2 2 -2 -2 0 2 -2 2 -10 

perceptron #10: -2 -2 2 -2 -2 0 2 0 4 -4 -2 -2 0 -2 0 -10 

perceptron #11: 0 2 0 0 0 0 -2 -2 2 -2 0 -2 0 -2 2 -10 

perceptron #12: 1 3 -1 -1 3 -1 3 1 -1 -3 -1 1 1 -1 -1 -7 

perceptron #13: 1 3 -1 1 3 -1 1 -1 3 1 1 1 1 1 -1 -11 

perceptron #14: 3 -1 1 1 -1 -1 -1 -1 -1 -1 -1 3 -1 1 3 -11 

perceptron #15: 1 1 -1 1 -3 1 3 1 1 1 1 1 1 1 1 -7 

perceptron #16: -2 2 0 0 -2 -2 -2 0 0 0 2 0 2 2 0 -10 

perceptron #17: -3 3 -1 1 -3 -1 -1 -1 -1 1 -1 1 -1 1 1 -9 

perceptron #18: 0 0 0 0 0 -2 2 0 2 -4 2 -2 -2 0 -2 -10 

perceptron #19: 0 0 2 0 -2 0 -2 0 0 -2 -2 0 -2 0 0 -12 

perceptron #20: 0 -2 0 0 0 0 0 4 0 0 0 0 2 2 0 -10 

perceptron #21: 3 -1 1 -1 3 3 -1 1 3 3 3 -1 3 1 1 -9 

perceptron #22: 0 2 0 -2 0 -2 0 2 0 -2 2 0 -2 2 -2 -8 

perceptron #23: -2 0 0 -2 2 -2 2 2 2 2 2 0 -2 0 0 -8 

perceptron #24: 0 0 2 0 -2 -2 0 0 0 2 -2 2 2 -2 0 -8 

perceptron #25: -4 2 0 2 -2 -4 0 -2 -4 0 0 -4 0 -2 0 -6 

perceptron #26: -1 -1 -1 5 -3 -1 -1 -1 -3 1 -1 -1 -1 -1 -1 -13 

perceptron #27: -1 -1 3 -1 -3 -1 1 1 1 -1 1 -1 -1 -3 1 -9 

perceptron #28: 2 0 2 0 0 0 0 -4 0 2 2 -4 -2 -2 -2 -10 

perceptron #29: -1 1 1 1 -1 3 -1 1 -5 -1 1 1 -1 1 -1 -7 

perceptron #30: -1 1 3 -1 -3 -3 1 1 -1 1 1 1 -1 1 1 -9 

perceptron #31: -2 0 0 0 2 0 -2 0 0 0 -2 0 2 0 0 -10 

perceptron #32: 0 -2 0 0 0 -2 0 0 2 -2 0 0 0 -2 2 -12 

perceptron #33: 2 -2 0 0 0 2 0 -2 0 -2 0 2 0 -2 2 -10 

perceptron #34: -1 1 1 -1 -1 -1 -3 -1 1 3 -1 -1 -1 -1 1 -11 

perceptron #35: 1 1 1 3 -1 3 -3 -1 -1 -3 3 -1 -3 -1 -1 -9 

perceptron #36: -3 -1 -1 -1 -1 -1 1 -1 -1 -1 -1 -1 -1 -3 1 -9 

perceptron #37: 3 1 3 3 -3 -1 3 -1 -1 -1 1 1 1 1 1 -9 

perceptron #38: -1 1 1 1 1 3 -1 -1 -1 -3 -1 1 1 -1 1 -11 

perceptron #39: -2 -2 0 0 0 2 0 -2 2 0 2 2 -2 0 2 -10 

perceptron #40: -2 -2 2 0 0 0 0 0 -6 0 -2 0 2 0 -2 -10 

perceptron #41: -2 -2 0 0 2 0 -2 0 -2 0 2 0 0 -2 2 -10 

perceptron #42: -2 0 2 -2 0 2 -2 0 -2 0 4 0 -4 -2 2 -8 

perceptron #43: 1 1 1 -1 -1 -1 -3 1 -1 -1 -1 1 1 3 -1 -9 

perceptron #44: 0 0 2 0 2 0 -2 0 0 0 -2 0 -4 0 0 -12 

perceptron #45: -1 -1 1 -1 1 -1 3 -1 1 -1 -1 -1 -3 -1 1 -11 

perceptron #46: 0 6 -2 -2 -2 2 2 -2 4 0 0 0 0 2 -2 -8 

perceptron #47: -1 1 -1 1 1 1 1 -1 -1 -1 3 -3 -1 -1 3 -9 

perceptron #48: -2 0 0 2 -2 0 2 -2 0 0 0 2 2 0 0 -12 

perceptron #49: 0 0 0 2 0 2 -4 -2 2 0 0 0 2 0 2 -12 

perceptron #50: -2 0 0 0 2 4 0 2 0 -4 2 -2 0 0 0 -10 

perceptron #51: -2 0 2 -2 2 0 0 0 2 -2 0 0 -2 2 0 -10 

perceptron #52: 0 0 0 2 -2 0 2 2 2 0 2 -4 2 0 0 -10 

perceptron #53: 0 2 0 0 2 0 2 -2 2 4 0 2 0 2 -4 -12 

perceptron #54: 1 -1 1 -1 3 -1 1 1 1 3 -1 -1 3 1 1 -13 

perceptron #55: 0 0 0 2 -2 -2 -4 2 0 0 -2 2 0 0 -2 -10 

perceptron #56: 0 0 0 0 4 0 0 -2 0 0 -4 0 2 0 0 -8 

perceptron #57: 0 0 0 -2 0 0 0 0 0 0 -2 -2 0 -2 0 -10 

perceptron #58: -1 1 3 -1 1 -1 -1 1 -1 -1 -1 1 -1 -1 1 -9 

perceptron #59: 0 -4 2 0 2 -4 0 0 -2 2 0 0 -2 -2 -2 -8 

perceptron #60: 1 -1 3 -1 -1 1 1 1 -1 -1 -1 -1 1 -1 3 -11 

perceptron #61: -1 1 -1 1 -1 1 -1 -3 1 -1 1 -1 -3 -1 1 -11 

perceptron #62: -1 -1 1 1 1 -1 -1 -1 -1 -1 3 1 -3 3 1 -11 

perceptron #63: 5 -1 1 3 -1 -1 -1 -1 -1 -1 1 -3 -1 -1 1 -9 

perceptron #64: 0 0 0 0 2 2 0 2 0 0 0 -2 2 4 2 -10 

perceptron #65: 1 -1 1 1 -1 -3 1 -1 1 1 -1 -1 1 1 -1 -9 

perceptron #66: -2 0 -2 0 0 0 0 0 0 0 -2 0 0 0 0 -12 

perceptron #67: -1 -1 -1 -1 -3 -5 -1 1 1 1 3 -1 -5 -1 -1 -9 

perceptron #68: -1 -1 3 1 -3 1 3 -5 3 -3 -1 -1 -1 -1 3 -11 

perceptron #69: 3 1 -3 1 1 1 3 1 -1 1 -1 1 1 -1 -1 -11 

perceptron #70: -1 3 -3 1 -1 1 -3 -3 1 3 3 -1 -1 -1 -3 -9 

perceptron #71: -1 1 1 1 1 1 -1 -1 1 -1 3 -1 -1 -1 1 -11 

perceptron #72: -1 -1 3 3 -3 -3 1 -3 -1 -1 1 1 -3 1 -1 -9 

perceptron #73: -3 3 -3 1 1 -1 -3 -1 -1 -1 1 -3 -5 -1 -3 -9 

perceptron #74: 0 0 4 2 -2 0 0 -2 -2 0 0 0 -2 -2 -2 -8 

perceptron #75: 0 0 -2 2 0 0 -4 0 0 2 4 -2 0 2 -2 -12 

perceptron #76: 1 3 -1 3 -1 -3 -1 1 -1 -3 1 -1 -1 1 1 -7 

perceptron #77: -1 -3 1 1 3 -3 1 1 1 -1 -1 -1 -3 -3 1 -11 

perceptron #78: 1 1 3 1 1 1 -1 3 1 -1 1 -1 3 -1 -1 -9 

perceptron #79: 2 0 0 -2 -4 2 0 -2 0 0 2 0 2 2 2 -10 

perceptron #80: 0 0 2 -2 0 2 2 2 2 -2 2 0 0 0 0 -10 

perceptron #81: -2 -2 4 2 2 0 0 -2 -4 0 0 0 0 0 0 -10 

perceptron #82: -1 -3 1 1 1 -1 -1 1 -1 -1 -3 -1 1 -1 -3 -9 

perceptron #83: -2 -2 2 2 0 -2 0 -2 -2 0 0 2 2 4 -2 -8 

perceptron #84: -2 0 0 0 -2 -2 -2 -2 0 0 4 0 0 2 -2 -10 

perceptron #85: -3 1 -1 1 1 -1 1 1 -1 3 -1 -3 -1 1 1 -11 

perceptron #86: 1 1 -1 1 -1 1 -1 -1 3 -3 1 -1 1 -1 -1 -11 

perceptron #87: -3 -1 -3 -1 1 1 -1 1 -3 -1 1 -1 1 -3 -1 -9 

perceptron #88: -2 -2 0 -2 0 2 0 -2 0 -2 0 -2 0 -2 0 -8 

perceptron #89: 0 -2 0 0 -2 0 2 -2 0 0 0 0 0 0 -2 -10 

perceptron #90: 0 0 2 2 2 -2 -2 0 0 -2 0 0 0 0 -2 -14 

perceptron #91: -1 1 -1 -1 -1 1 -3 -1 1 1 3 3 1 -1 1 -9 

perceptron #92: -1 3 3 -1 3 1 -1 -1 1 -5 -1 -1 -1 1 1 -9 

perceptron #93: -1 -1 1 3 1 3 -1 -1 -1 1 1 -1 -3 -3 1 -11 

perceptron #94: -1 -1 -1 -1 -1 1 -1 1 1 -1 1 1 3 -1 -1 -13 

perceptron #95: -1 -1 -1 1 -1 -3 3 -1 -1 3 -3 1 -1 3 -3 -7 

perceptron #96: -3 -1 1 -1 1 1 1 3 1 1 -1 -1 -3 1 -1 -11 

perceptron #97: 1 -1 -1 -1 1 1 -1 3 -3 -1 3 1 1 1 -1 -9 

perceptron #98: -1 -1 1 3 -3 -3 3 1 -1 1 -1 -1 -1 1 1 -11 

perceptron #99: -3 3 3 1 -1 1 1 1 1 1 1 1 1 1 1 -9 

perceptron #100: -3 3 3 -1 -1 1 1 -1 3 -5 1 -1 1 1 1 -7 

perceptron #101: 2 0 0 0 0 0 2 2 0 0 0 0 -2 -2 2 -10 

perceptron #102: -3 1 1 -3 1 -1 1 -1 -1 -1 1 1 1 1 1 -9 

perceptron #103: -2 2 -2 0 -2 2 0 2 0 0 0 0 -4 -2 -2 -8 

perceptron #104: -1 1 1 1 3 1 1 -3 -3 -1 -1 1 1 1 1 -11 

perceptron #105: 0 -2 0 0 2 2 -2 0 2 0 0 -4 2 0 0 -10 

perceptron #106: 0 0 2 0 0 0 0 4 0 0 0 0 2 2 0 -10 

perceptron #107: -1 -1 -1 -1 3 1 -1 -1 5 3 -1 -1 1 1 3 -9 

perceptron #108: -1 1 1 -1 1 1 1 3 1 -3 1 1 -1 -1 1 -9 

perceptron #109: -1 -3 -1 1 1 1 1 3 -1 1 1 1 -3 1 3 -9 

perceptron #110: -3 -3 -1 -3 -3 -1 -3 3 -1 3 1 1 -1 -1 -1 -11 

perceptron #111: -4 0 -4 0 0 -2 -2 2 0 0 -2 2 2 -2 2 -8 

perceptron #112: 0 4 -2 2 -2 0 -2 2 -2 0 0 0 0 0 2 -10 

perceptron #113: 2 -2 -2 -2 0 2 0 2 0 2 2 -2 0 2 0 -12 

perceptron #114: 1 1 -1 1 1 -3 1 -1 -1 -1 1 -1 1 1 -1 -11 

perceptron #115: 2 -2 2 0 0 2 -2 4 -2 -2 -2 0 0 -2 0 -8 

perceptron #116: 5 -3 3 1 -1 1 3 1 1 -1 -3 1 3 -1 3 -9 

perceptron #117: 0 0 -4 2 2 0 -2 2 -2 0 -2 0 2 -2 0 -10 

perceptron #118: -3 1 1 1 3 3 1 -1 -1 -3 1 -5 3 -3 -3 -13 

perceptron #119: -1 1 1 -3 -1 1 1 -1 -1 -1 -1 1 1 3 3 -9 

perceptron #120: -1 1 1 -1 3 1 1 1 1 -1 -1 1 1 1 -1 -11 

perceptron #121: -1 1 1 1 1 1 -1 1 3 -3 -3 -1 1 -1 1 -11 

perceptron #122: 3 3 -1 1 1 3 -1 -1 -1 3 1 1 -1 1 1 -7 

perceptron #123: -1 -1 1 1 1 -1 1 1 1 1 -1 -1 3 -1 1 -9 

perceptron #124: 0 0 0 0 -2 2 0 -2 2 0 -2 0 0 -2 0 -10 

perceptron #125: 0 -2 0 0 2 0 0 2 0 0 0 0 2 0 0 -10 

perceptron #126: -2 -2 0 -2 2 0 2 0 0 -2 0 -2 0 0 0 -8 

perceptron #127: 3 -3 1 -1 -1 3 1 1 -1 -1 -3 -1 1 1 1 -9 

perceptron #128: 0 -2 -2 -2 2 2 4 2 0 0 0 0 0 -2 -2 -10 

perceptron #129: -3 -1 -3 1 -1 1 1 -1 1 1 -3 -1 -1 -1 -1 -9 

perceptron #130: -2 0 0 0 -2 0 2 0 -2 -2 -4 0 0 2 -2 -8 

perceptron #131: -1 1 1 -1 1 1 -1 -1 -1 1 1 -1 3 -1 -1 -11 

perceptron #132: -1 -3 3 -1 -3 -3 1 -1 -1 -1 1 1 1 -3 1 -11 

perceptron #133: -3 1 -1 1 -1 1 1 -1 -5 -1 1 1 -1 1 -1 -11 

perceptron #134: 0 -2 0 0 0 0 -2 0 -2 0 0 0 0 -2 0 -10 

perceptron #135: 2 -2 2 0 -2 0 0 2 0 0 0 -2 0 2 -2 -12 

perceptron #136: -3 3 -1 1 -1 -1 -1 -1 1 -1 -1 -1 -3 1 1 -9 

perceptron #137: -1 -1 1 -1 3 -1 -1 1 1 -1 -1 -1 1 -1 -1 -9 

perceptron #138: 1 1 1 1 3 -1 -1 1 1 -3 1 1 1 -1 1 -11 

perceptron #139: -3 -1 -1 1 -1 -1 1 -1 1 -1 1 -1 -1 1 -1 -7 

perceptron #140: -1 3 1 -5 -3 1 3 1 3 -3 3 -3 1 -3 1 -7 

perceptron #141: 0 -2 0 -2 -2 0 0 -2 2 0 -2 0 0 0 2 -10 

perceptron #142: -1 -3 3 1 -1 -1 3 -1 3 -1 3 -1 -1 5 1 -9 

perceptron #143: 1 3 3 -1 1 -3 1 -3 3 3 -1 -3 1 1 -1 -9 

perceptron #144: -1 3 1 -3 -1 -5 1 -1 1 1 -1 3 1 3 -1 -9 

perceptron #145: -1 3 -3 3 -5 -1 -1 1 -1 1 -1 -1 -1 -1 1 -9 

perceptron #146: -1 1 -1 1 -1 1 -1 -1 -1 -1 -1 -1 -1 1 3 -9 

perceptron #147: 0 -2 0 0 0 -4 0 -2 0 -2 0 0 -2 2 0 -8 

perceptron #148: 2 0 0 -2 0 2 0 -2 2 0 0 2 -2 2 0 -10 

perceptron #149: -1 1 1 1 -1 -3 1 1 -1 -1 3 1 1 3 -1 -11 

perceptron #150: 5 -3 -1 -1 -3 -1 1 1 -1 -1 -1 -1 1 1 -1 -7 

perceptron #151: 0 4 -2 2 0 -2 0 0 0 -2 2 2 4 0 0 -10 

perceptron #152: 2 -2 2 -2 -2 0 0 0 2 0 2 2 0 -2 2 -8 

perceptron #153: -2 -2 -2 4 0 -2 0 -2 -2 -2 2 4 -2 0 2 -8 

perceptron #154: 1 -1 -1 -1 1 -1 -1 -1 -1 1 -1 1 -3 -3 -1 -13 

perceptron #155: -2 0 -2 2 0 0 -4 2 0 4 -2 2 0 -2 0 -10 

perceptron #156: 3 -1 -1 -1 -1 -1 -1 -1 -1 -1 -1 1 -1 1 1 -7 

perceptron #157: 0 0 0 0 -2 2 2 0 0 -4 2 -2 0 -2 -2 -10 

perceptron #158: 0 -2 0 0 0 0 0 0 0 -2 0 -2 -2 0 -2 -10 

perceptron #159: -3 1 -3 1 1 1 -1 -1 -1 -1 -1 1 -1 1 -3 -11 

perceptron #160: -2 -4 4 -2 -2 2 0 0 0 0 2 0 0 4 2 -8 

perceptron #161: 1 -1 1 1 1 3 3 -1 1 -1 1 3 3 1 -1 -11 

perceptron #162: -1 1 1 3 -1 1 -1 1 -1 -1 1 1 1 -1 -1 -9 

perceptron #163: -1 3 -1 1 -5 -1 -1 1 -1 -3 -3 3 1 1 -1 -11 

perceptron #164: 0 2 -2 2 2 0 0 -2 2 4 0 0 2 -2 0 -10 

perceptron #165: 0 -2 2 -2 0 -2 -2 0 0 -2 0 -4 0 -2 2 -8 

perceptron #166: -2 2 2 -2 -4 0 -2 0 0 0 0 0 0 -2 0 -12 

perceptron #167: -1 1 -1 -1 1 -1 3 1 -3 1 1 1 -1 1 1 -9 

perceptron #168: -2 0 2 0 2 -4 2 0 -2 0 -2 2 0 0 -4 -10 

perceptron #169: 1 -1 1 -1 1 -1 -1 3 1 -1 -1 1 -1 -1 1 -11 

perceptron #170: -2 0 0 -2 0 0 -2 0 2 0 0 -2 0 -2 2 -12 

perceptron #171: -2 -2 0 0 0 -2 -2 2 2 0 0 0 -2 -2 0 -8 

perceptron #172: -2 -4 4 2 0 -2 -2 2 -2 -2 -2 -2 2 0 -2 -8 

perceptron #173: -1 -1 1 -1 -1 -1 3 1 1 -1 1 1 -1 3 1 -9 

perceptron #174: 0 0 0 2 2 0 -2 0 0 0 2 2 0 0 0 -10 

perceptron #175: -1 -1 -1 1 -1 1 3 -1 -1 1 -1 1 1 -1 1 -11 

perceptron #176: -1 -3 -1 -3 3 -3 -1 -1 -1 1 -1 1 1 -1 -1 -9 

perceptron #177: -1 -3 -3 -1 -1 -3 1 1 1 -1 -1 -1 1 -3 -3 -9 

perceptron #178: 0 0 0 0 0 -2 0 -2 0 2 2 -2 -2 0 0 -10 

perceptron #179: 1 -1 -1 -3 -1 1 1 -1 1 1 3 1 -3 -1 -3 -11 

perceptron #180: 1 -1 3 1 1 -1 1 1 1 -1 1 -3 1 -1 1 -11 

perceptron #181: 1 -1 -1 -1 1 -1 3 -1 -1 -1 1 -3 -1 1 1 -11 

perceptron #182: -2 0 2 0 4 0 0 2 -2 2 2 -2 -2 0 0 -10 

perceptron #183: -2 2 2 0 -2 -2 0 2 -2 0 -2 0 -2 -4 0 -10 

perceptron #184: 0 2 2 0 0 -4 -2 2 -2 0 0 0 0 -2 2 -10 

perceptron #185: 2 2 0 0 2 -2 0 0 0 -2 0 2 -2 -2 0 -10 

perceptron #186: 2 0 4 0 0 0 -2 2 -2 0 0 -2 -2 0 -2 -6 

perceptron #187: 0 0 2 2 -2 -2 0 2 0 -2 0 0 4 -2 2 -10 

perceptron #188: 2 2 2 0 2 0 0 -2 0 -2 0 0 0 0 0 -10 

perceptron #189: -2 0 2 -2 0 -2 0 0 0 0 2 2 0 0 0 -10 

perceptron #190: 0 0 2 0 -2 -2 -2 0 0 -2 -2 0 0 -2 2 -10 

perceptron #191: -5 -1 -1 1 -3 -1 -1 1 -1 -1 1 1 -1 1 -1 -11 

perceptron #192: -4 2 0 0 0 -4 2 -2 0 -4 -2 -4 0 0 0 -10 

perceptron #193: 0 2 4 2 -4 0 0 0 0 -2 2 4 0 2 -4 -8 

perceptron #194: -1 -1 1 1 -1 -3 -1 -1 -1 -1 -1 -1 -1 -3 1 -7 

perceptron #195: 3 1 -3 3 -1 -3 -1 1 1 -1 1 -1 1 -3 -3 -9 

perceptron #196: -4 -2 0 -2 -2 0 4 2 -2 0 2 -2 0 -4 -2 -8 

perceptron #197: -2 0 0 -4 2 0 0 0 -2 -2 2 -4 -2 -2 4 -10 

perceptron #198: 0 -2 -2 2 2 -2 0 -2 0 -4 2 -2 2 -2 0 -10 

perceptron #199: 0 -4 0 0 -4 -4 2 0 4 0 0 -2 0 -2 0 -8 

perceptron #200: -1 -1 -1 1 3 -1 -1 -1 1 -1 1 -1 1 -1 1 -11 

perceptron #201: 1 -1 -5 1 3 -5 1 -3 -1 -1 3 -1 -3 1 -1 -9 

perceptron #202: -4 -2 0 2 2 2 2 2 -2 -2 -2 0 0 0 2 -6 

perceptron #203: -1 -1 1 1 -3 1 -3 3 1 1 -1 -1 -1 1 1 -11 

perceptron #204: 0 0 -4 2 2 -2 2 0 0 0 0 -2 0 -2 0 -10 

perceptron #205: -1 -1 -3 1 -1 -1 3 -1 3 -1 1 -1 -1 1 1 -9 

perceptron #206: -3 -3 -3 -1 -1 1 -1 -1 1 -1 -3 -1 1 1 1 -9 

perceptron #207: 0 0 0 2 -2 -2 0 -2 0 -2 0 0 -2 0 -2 -8 

perceptron #208: 0 0 -2 2 2 -2 0 -2 2 -2 2 2 -4 -2 2 -10 

perceptron #209: -3 1 -1 3 1 1 -1 -1 5 -1 3 1 1 -1 3 -9 

perceptron #210: -1 1 -1 -1 -1 1 5 -1 1 3 -1 -3 -1 1 1 -7 

perceptron #211: -2 -2 -2 0 -4 -4 2 -2 0 0 2 0 0 -2 -2 -8 

perceptron #212: 0 -2 0 2 2 0 -2 -2 2 0 2 0 -2 -4 2 -10 

perceptron #213: 2 0 -2 -2 -2 -2 0 -4 2 -2 0 -2 -2 2 -4 -8 

perceptron #214: -2 4 -2 0 0 0 -2 -2 0 -2 2 -2 -4 0 2 -10 

perceptron #215: 1 -1 3 1 1 -1 -1 1 3 -1 -1 -1 1 -1 1 -11 

perceptron #216: 1 -1 3 1 -1 -1 1 -1 -1 1 -1 -3 1 1 1 -9 

perceptron #217: -1 -1 1 1 1 -3 -1 -3 1 1 -1 1 -3 1 1 -11 

perceptron #218: -2 0 -2 2 0 0 2 0 2 -2 2 0 -4 -2 2 -10 

perceptron #219: 0 0 -4 0 -2 -2 6 -2 -2 -4 2 2 0 0 0 -8 

perceptron #220: -4 0 -4 4 0 -4 -2 0 -2 -2 0 2 -2 0 2 -8 

perceptron #221: -1 -1 -3 3 1 -3 -1 1 -1 -3 1 -1 -3 -1 1 -11 

perceptron #222: -1 -5 -1 1 1 1 -1 -3 1 -1 1 -5 -1 -1 -3 -11 

perceptron #223: -4 -2 -2 0 0 0 0 -2 -2 0 2 -2 0 0 0 -8 

perceptron #224: 2 0 -2 4 4 -2 0 2 -2 -2 2 -4 0 -2 -2 -10 

perceptron #225: 1 -1 1 3 1 -1 1 -1 1 -1 1 -1 1 3 1 -9 

perceptron #226: -2 -2 0 -2 0 2 2 0 0 -4 4 2 0 0 -2 -10 

perceptron #227: 2 2 0 0 -4 2 0 0 2 0 4 -2 -2 -2 2 -8 

perceptron #228: 1 1 -1 1 3 1 1 1 -1 1 1 -1 1 -1 1 -9 

perceptron #229: -2 0 0 0 0 -2 4 -2 -2 0 -2 -2 0 -2 -2 -10 

perceptron #230: -2 0 -2 0 2 0 2 0 2 0 0 -2 0 -2 -2 -10 

perceptron #231: -1 1 1 1 3 -1 3 -1 1 -1 1 -1 -5 1 1 -7 

perceptron #232: -2 0 0 0 0 0 2 -2 0 -2 0 -2 0 2 4 -10 

perceptron #233: 1 1 -1 -1 -1 -3 1 -3 1 -1 1 -1 -1 3 1 -7 

perceptron #234: -3 -1 -1 3 1 -1 -1 -1 1 -3 1 -3 -1 1 -1 -9 

perceptron #235: -1 -1 1 1 1 -1 3 -1 -1 -3 3 -1 -3 -1 -1 -9 

perceptron #236: 1 -1 -1 -1 -1 1 -3 -1 1 -1 1 -3 -1 -3 1 -9 

perceptron #237: -1 -1 -1 -1 -1 -1 3 -3 -1 -5 -1 -1 1 -3 1 -11 

perceptron #238: 0 0 -2 2 0 0 0 2 0 -4 2 -2 0 -2 2 -8 

perceptron #239: 1 -1 -1 -1 -1 1 3 1 -1 -1 1 -1 1 -3 1 -9 

perceptron #240: 1 -1 1 3 -1 -1 1 -1 1 -5 3 -3 -1 -1 3 -9 

perceptron #241: -1 -3 -3 3 3 -3 1 1 1 -1 1 -3 -1 3 1 -9 

perceptron #242: 1 -1 -3 -1 1 -1 3 -1 1 -1 1 -1 1 -1 -1 -9 

perceptron #243: 0 0 0 -2 -2 -2 0 2 0 0 0 2 0 2 0 -10 

perceptron #244: 2 0 0 0 2 0 2 0 0 -2 0 -2 -2 -2 0 -8 

perceptron #245: -1 1 3 1 1 -3 1 1 -1 -1 3 -1 -1 -1 5 -9 

perceptron #246: -4 2 -4 2 -2 -2 0 0 -2 2 0 0 -2 0 0 -6 

perceptron #247: -6 2 -2 2 2 4 -2 4 2 -2 -2 0 0 0 2 -10 

perceptron #248: -1 -1 -1 -1 -1 -1 3 -3 1 -1 1 -1 1 1 -1 -9 

perceptron #249: -2 0 -2 0 0 0 0 2 0 -2 0 0 0 4 2 -10 

perceptron #250: 0 -2 2 0 0 -2 2 2 -2 -2 0 -2 2 0 2 -10 

perceptron #251: -3 3 -3 -3 3 3 3 -3 1 1 1 1 -3 -1 1 -9 

perceptron #252: 1 1 -1 -1 3 -1 1 -3 1 1 3 -1 3 -1 1 -9 

perceptron #253: 1 -1 -1 1 1 1 3 -3 3 1 -1 1 1 -3 1 -11 

perceptron #254: -1 1 -1 -1 1 -3 -3 -1 3 1 -3 -1 -1 1 1 -9 

perceptron #255: -5 -1 1 -1 3 1 1 1 1 -1 3 1 -1 1 1 -7 

perceptron #256: 1 3 1 1 3 -1 1 -1 -1 -1 3 -1 -1 -1 -3 -11 

perceptron #257: -1 1 -1 3 -1 1 -3 -3 -3 -1 -1 1 -3 -1 -3 -7 

perceptron #258: -2 2 0 0 0 0 0 4 -4 -4 -2 2 2 2 -2 -10 

perceptron #259: -1 -3 1 3 -1 -1 -3 1 1 1 -3 1 -1 1 -1 -9 

perceptron #260: 1 -1 1 -1 -1 -1 -1 -1 1 1 -1 1 -1 1 -1 -9 

perceptron #261: 1 1 3 1 -1 -1 -1 -1 -1 1 -1 1 1 -1 1 -9 

perceptron #262: -2 -2 0 0 2 -2 2 0 0 -2 0 2 0 2 -2 -10 

perceptron #263: -1 1 1 -3 -1 -1 3 1 -1 -3 -3 3 1 1 1 -9 

perceptron #264: 1 -3 3 1 1 1 -1 1 1 1 -5 3 -1 1 1 -9 

perceptron #265: -1 -1 -1 3 -1 1 -1 1 -1 -1 1 -1 -3 1 -1 -11 

perceptron #266: -2 2 2 2 -2 2 2 2 0 0 2 0 -4 0 0 -8 

perceptron #267: 2 0 0 2 -2 -2 2 -2 -2 -2 0 -2 2 2 0 -8 

perceptron #268: 1 3 3 1 3 1 -1 -1 -1 -1 -3 1 1 1 1 -11 

perceptron #269: -3 1 1 -1 -1 -3 -3 -1 -3 1 3 1 -1 1 3 -11 

perceptron #270: 1 -1 1 -1 -1 -1 -1 1 1 1 -3 3 1 -3 -3 -7 

perceptron #271: -3 -1 -1 1 -1 -5 1 -1 1 5 -1 1 1 1 -1 -9 

perceptron #272: -2 0 0 2 -2 -4 -2 4 -2 0 2 0 0 2 2 -6 

perceptron #273: -2 0 0 0 0 -4 0 2 0 -4 2 -2 -2 0 -4 -10 

perceptron #274: -2 2 0 0 -4 0 -2 0 0 0 0 2 -2 0 0 -8 

perceptron #275: -3 3 -3 -1 1 -1 1 -3 1 -1 1 -3 3 -1 5 -7 

perceptron #276: -3 1 -3 3 -1 1 -1 3 3 -1 1 1 3 -3 -3 -9 

perceptron #277: -1 -1 -3 1 -3 -1 -1 -1 1 3 1 -1 -1 1 1 -13 

perceptron #278: 2 -2 2 2 0 0 2 -2 -2 2 4 0 -2 2 0 -8 

perceptron #279: -2 -4 0 0 4 0 -2 -2 -2 -2 2 0 2 -2 2 -10 

perceptron #280: 3 1 1 1 -1 1 -1 -1 -1 -1 1 -1 -1 -1 -3 -11 

perceptron #281: -3 -3 1 -1 1 -1 -3 1 -1 -1 3 -1 -1 3 -3 -11 

perceptron #282: -2 0 -2 2 2 0 0 -2 0 -2 0 2 0 0 0 -12 

perceptron #283: 1 -1 3 -1 -1 1 3 -1 1 1 -1 1 -1 -3 -1 -11 

perceptron #284: 0 0 0 2 2 0 0 0 -2 2 -2 2 -2 -2 0 -10 

perceptron #285: 0 0 2 2 2 0 -2 0 -2 0 -2 2 0 0 0 -8 

perceptron #286: 0 0 0 0 -2 0 -2 0 -2 2 0 -2 0 2 0 -10 

perceptron #287: -2 -2 0 2 2 -4 0 0 0 0 4 -2 0 0 0 -10 

perceptron #288: 2 0 -2 0 0 -2 0 0 -4 -2 0 0 2 0 -2 -10 

perceptron #289: -1 1 -3 -1 -1 1 1 1 1 -3 1 1 1 -1 1 -11 

perceptron #290: 1 -3 1 3 -1 1 1 1 -3 1 3 -1 -1 -1 -1 -11 

perceptron #291: 2 2 -2 -2 0 0 0 2 0 0 2 -2 0 2 0 -10 

perceptron #292: -4 -2 0 2 2 2 0 2 0 0 2 0 4 2 0 -8 

perceptron #293: 1 3 1 1 1 -1 -1 1 1 1 -1 -1 -1 -3 3 -11 

perceptron #294: 1 -1 -1 1 -1 3 -1 3 1 -1 -3 -1 -1 1 -3 -9 

perceptron #295: 2 2 -2 0 0 -2 -2 0 0 2 0 0 -2 2 0 -8 

perceptron #296: 3 1 -1 -1 -1 -3 1 -1 -1 -3 3 -1 1 3 1 -7 

perceptron #297: 0 -2 2 0 -2 -2 2 0 -2 0 2 -2 2 0 2 -8 

perceptron #298: 1 -1 1 3 -1 -3 3 1 -1 3 -1 1 -3 -3 -1 -9 

perceptron #299: -1 -1 1 1 -1 -3 1 -1 -3 -1 -3 1 -1 1 -3 -11 

perceptron #300: -3 -3 3 -1 -1 1 -1 -1 1 -1 -1 -1 -1 1 -1 -11 

perceptron #301: 0 -4 0 0 -2 -4 -2 -2 0 -2 -2 0 2 0 -2 -8 

perceptron #302: -4 0 0 0 -4 0 0 0 0 -2 2 -4 2 -2 -2 -8 

perceptron #303: 1 -1 -1 5 3 -1 -3 -1 -3 -3 3 3 -1 -1 3 -9 

perceptron #304: 2 0 2 0 0 -2 -2 0 2 2 0 -2 0 0 -2 -10 

perceptron #305: 0 0 2 2 0 -2 0 -2 -2 -2 0 4 0 -2 -4 -8 

perceptron #306: -1 1 1 -1 -1 -1 -1 -1 -1 -1 1 1 1 3 1 -11 

perceptron #307: -1 -3 1 3 1 -1 -1 -3 -1 1 -3 -1 1 1 1 -9 

perceptron #308: 0 2 -2 0 -2 -2 -2 0 0 -2 2 0 -2 -2 0 -10 

perceptron #309: -1 -1 -1 1 -1 1 1 1 -1 -3 1 1 -1 1 1 -7 

perceptron #310: 2 0 0 2 0 -2 0 0 0 -2 -2 -2 0 2 0 -10 

perceptron #311: 3 3 1 1 1 -1 3 1 -1 -1 3 1 -1 1 -1 -9 

perceptron #312: 2 -2 0 2 0 0 0 0 2 -2 2 0 0 0 0 -6 

perceptron #313: 1 -1 5 1 3 1 -3 -3 -1 3 1 3 -1 -1 -1 -11 

perceptron #314: -1 -3 1 1 -3 1 -3 -3 1 1 1 5 1 1 -1 -7 

perceptron #315: -3 -5 -1 1 1 -1 1 -1 -3 -3 -3 1 1 1 1 -9 

perceptron #316: -4 2 -4 0 2 -2 -2 -4 2 -2 2 2 -2 0 -2 -8 

perceptron #317: -3 -1 -1 -1 1 -1 -1 1 3 1 -1 1 -1 1 -3 -11 

perceptron #318: -1 -3 3 1 -1 -1 1 1 -1 -1 -1 1 -1 1 -1 -9 

perceptron #319: -1 -1 -1 -1 -1 -1 -1 1 -1 -1 -1 1 -1 -1 1 -11 

perceptron #320: 0 0 -6 2 -4 -4 2 0 0 0 0 0 0 0 2 -10 

perceptron #321: -1 1 -1 1 3 -1 1 1 -3 1 -1 -1 1 1 -1 -11 

perceptron #322: -2 4 0 -2 0 -2 -2 0 -2 -2 2 -2 -2 -2 0 -10 

perceptron #323: 0 2 0 0 -2 -2 0 4 0 2 -2 2 0 0 2 -12 

perceptron #324: 1 -1 1 1 3 1 -1 1 1 1 -1 1 1 -1 3 -9 

perceptron #325: 1 1 -3 -1 -1 1 1 1 1 1 3 -1 -1 1 -1 -11 

perceptron #326: 0 -2 0 0 2 0 2 -2 -4 -2 2 4 0 0 -2 -8 

perceptron #327: -2 -2 2 -2 2 0 2 0 0 0 2 -2 0 0 0 -10 

perceptron #328: 1 1 1 -3 -3 -1 1 3 3 1 -1 1 1 -3 3 -9 

perceptron #329: -1 3 -1 -3 -3 -1 -1 -3 1 1 1 3 1 -3 -1 -9 

perceptron #330: -1 -1 -1 1 1 -1 -1 1 1 -1 1 -1 -1 -1 1 -13 

perceptron #331: 1 -1 -3 1 -1 -3 -1 1 -3 1 1 -1 -3 1 1 -9 

perceptron #332: 2 2 2 0 2 2 -2 2 0 -2 0 -2 -2 -2 -4 -8 

perceptron #333: 1 1 -1 1 -1 -1 1 -1 1 -1 -1 1 1 -1 3 -11 

perceptron #334: 2 2 -2 0 0 0 2 -4 0 -2 0 0 0 0 -4 -10 

perceptron #335: 1 1 -1 3 -1 1 1 3 -1 1 3 -1 -1 -3 -1 -9 

perceptron #336: 0 2 2 2 0 0 2 2 4 0 2 -4 0 0 -2 -10 

perceptron #337: -3 -1 -1 -1 1 3 -1 1 -1 1 1 1 -1 1 1 -11 

perceptron #338: 0 0 0 2 0 0 0 0 -2 2 -2 0 -2 -2 0 -8 

perceptron #339: 3 5 -1 1 -1 1 1 -3 -3 -1 1 -1 -1 -1 1 -9 

perceptron #340: -1 -1 -1 1 -1 1 -3 3 3 -1 3 -1 -1 -1 -1 -9 

perceptron #341: -1 -3 1 1 3 1 -3 -1 -1 -1 3 1 -1 -1 -5 -9 

perceptron #342: 1 -1 -1 -1 -1 -1 -1 1 1 1 1 -1 1 1 -1 -11 

perceptron #343: -2 0 2 0 0 0 0 0 0 -4 -2 -2 -2 -2 0 -10 

perceptron #344: -2 0 2 2 0 0 0 2 2 0 2 -2 2 0 0 -10 

perceptron #345: 2 -2 0 0 -2 -2 2 0 -2 0 0 2 0 0 2 -12 

perceptron #346: 1 1 -1 1 -1 -1 1 -1 1 1 -1 -1 1 1 -1 -9 

perceptron #347: -1 1 1 1 -1 -1 -1 -1 -1 -1 1 -1 3 1 1 -13 

perceptron #348: 0 -2 0 0 0 0 0 2 -4 2 0 0 -2 2 -2 -6 

perceptron #349: -1 -1 3 1 -1 -3 -1 -1 -1 -1 1 -1 -1 -1 1 -9 

perceptron #350: -3 1 1 1 1 -1 3 -3 1 -1 -3 -1 1 1 3 -9 

perceptron #351: 0 0 2 0 2 -2 -2 0 2 0 -6 0 -4 0 0 -10 

perceptron #352: 0 0 -2 2 -2 0 -4 2 -4 -2 -2 -2 0 2 2 -6 

perceptron #353: 4 -2 0 0 0 0 0 0 0 2 -2 0 2 -2 4 -8 

perceptron #354: 2 2 2 0 0 0 -2 4 -2 -2 0 -2 0 0 0 -10 

perceptron #355: -2 2 0 2 0 0 -2 0 -2 0 2 -2 0 2 0 -10 

perceptron #356: 1 1 1 1 -3 3 -3 3 -3 -1 -1 -3 1 -1 1 -7 

perceptron #357: 2 0 -2 0 -2 -2 0 -2 -2 2 -2 0 -2 -2 0 -10 

perceptron #358: -1 1 1 1 1 -1 3 -3 1 1 1 1 -1 1 1 -11 

perceptron #359: 1 3 -1 -3 1 1 1 1 -1 3 1 -1 1 -1 -1 -9 

perceptron #360: -1 -1 -3 -1 1 -1 -1 -1 -1 3 -1 1 -1 -1 1 -11 

perceptron #361: -1 -1 -1 1 -1 -1 -1 -1 -3 1 -1 1 1 1 3 -11 

perceptron #362: 0 0 2 -2 2 0 0 -2 0 0 -2 2 2 0 -2 -12 

perceptron #363: -2 0 -4 -2 0 0 -4 2 0 0 -2 0 0 0 0 -12 

perceptron #364: -1 1 1 1 1 -1 -1 3 -3 1 -1 1 1 -1 -3 -9 

perceptron #365: 0 2 0 0 -2 0 0 0 0 0 0 2 2 0 -2 -8 

perceptron #366: -1 1 -3 -1 1 -1 -3 1 1 3 3 1 -1 -1 -1 -9 

perceptron #367: -1 1 -1 3 1 1 1 -1 -3 3 3 3 1 1 1 -7 

perceptron #368: -2 2 -2 2 2 0 0 2 0 2 0 4 -2 0 2 -10 

perceptron #369: 2 0 -2 -2 0 2 0 -2 -2 0 2 0 0 0 0 -10 

perceptron #370: -1 1 1 1 -1 1 -3 -1 3 -3 1 1 1 -1 1 -7 

perceptron #371: 0 -2 2 0 -2 2 0 0 4 0 0 0 0 2 -2 -10 

perceptron #372: -1 -1 1 1 1 -1 1 1 1 3 1 1 -1 -1 3 -9 

perceptron #373: -2 0 0 -2 -2 2 0 -2 0 -4 0 2 0 0 0 -10 

perceptron #374: 1 1 -1 -1 -1 -1 1 -1 1 -1 -1 1 1 -1 1 -11 

perceptron #375: 0 2 2 -2 2 -2 2 2 2 0 4 0 -2 0 2 -12 

perceptron #376: -1 1 -1 1 -1 -5 1 1 1 1 1 1 1 -1 1 -11 

perceptron #377: 2 0 0 2 2 -2 0 4 0 2 0 0 0 0 2 -8 

perceptron #378: -2 -4 2 2 -4 2 0 0 -2 2 2 0 0 0 -2 -8 

perceptron #379: 0 0 -2 4 0 0 0 2 0 -2 0 -2 -4 0 2 -10 

perceptron #380: 0 -2 -2 0 0 0 0 4 0 0 2 0 0 -2 0 -10 

perceptron #381: 2 6 2 2 2 -2 -2 -2 -2 0 -2 0 -4 0 0 -10 

perceptron #382: 0 -2 2 2 -2 0 0 0 2 -4 0 0 2 -2 0 -10 

perceptron #383: 1 1 1 1 3 -1 -1 -1 1 -1 -1 1 1 -1 1 -11 

perceptron #384: 3 1 -1 1 1 -1 -1 -1 1 -1 -1 -1 1 1 1 -11 

perceptron #385: 2 -2 -2 -2 6 0 2 0 -2 2 -2 0 0 -2 -4 -12 

perceptron #386: 1 1 -1 -1 1 -1 1 3 1 -1 -1 -1 -1 -5 -3 -7 

perceptron #387: 1 1 1 1 -1 1 1 1 -1 -1 1 1 -1 1 -1 -9 

perceptron #388: -3 -3 -1 3 1 -1 -1 -3 -1 1 -1 1 -3 1 -3 -11 

perceptron #389: 0 2 -2 0 4 2 0 -2 0 4 0 0 0 0 -2 -6 

perceptron #390: 0 -2 0 0 0 0 2 2 0 2 2 -2 0 0 2 -8 

perceptron #391: -2 0 -2 -4 -2 -2 0 2 -2 -2 0 0 0 0 0 -10 

perceptron #392: 4 0 -2 -4 -2 0 0 2 0 0 0 -2 0 2 0 -10 

perceptron #393: 1 1 1 1 1 -1 3 -1 3 -1 -1 -3 1 -1 1 -11 

perceptron #394: 1 1 1 -1 -1 1 -1 1 -3 -1 -1 -1 1 1 -1 -9 

perceptron #395: 2 0 0 0 0 2 -2 0 0 2 -2 2 2 2 0 -12 

perceptron #396: 0 0 0 2 2 2 -2 2 -2 -2 0 0 0 -2 -2 -10 

perceptron #397: 1 1 -3 1 -1 -3 1 3 1 -3 1 5 1 1 1 -9 

perceptron #398: -1 -1 -1 1 1 1 1 -1 1 -3 -1 3 1 1 3 -11 

perceptron #399: -2 -2 2 0 0 0 -2 -2 0 0 -2 -2 -2 4 2 -10 

perceptron #400: 1 -1 -1 1 -1 1 1 1 -1 -1 1 -1 -1 -1 -3 -9 

perceptron #401: 0 4 -2 -2 0 0 2 -2 2 2 0 2 0 -2 -2 -6 

perceptron #402: -1 -1 1 3 1 1 5 -1 -1 -1 -3 1 -5 -1 -1 -9 

perceptron #403: 1 -3 1 3 -3 -1 1 -3 1 -1 3 1 1 1 -3 -9 

perceptron #404: -1 -3 -1 1 1 1 -1 -1 -3 -5 -3 1 -1 1 1 -9 

perceptron #405: 0 0 -6 0 0 2 2 0 -2 0 -4 0 2 0 0 -8 

perceptron #406: 2 0 0 0 4 2 -2 0 2 2 0 0 2 2 0 -10 

perceptron #407: -1 -1 3 -1 1 -1 -1 1 -1 -3 -1 3 1 1 -1 -9 

perceptron #408: -2 2 2 0 0 0 -2 0 2 -2 2 0 0 0 0 -8 

perceptron #409: -2 0 0 2 4 -2 2 2 0 0 -2 0 2 2 0 -10 

perceptron #410: -2 -2 2 -2 2 0 -2 0 2 0 0 0 0 0 0 -14 

perceptron #411: -1 -5 1 1 -1 1 -1 1 1 3 3 1 -1 -3 1 -11 

perceptron #412: 1 1 1 -1 -1 -1 -1 -3 1 -1 1 -1 -1 1 1 -11 

perceptron #413: 1 -1 -1 1 -1 5 1 -3 1 -1 1 1 1 -1 3 -7 

perceptron #414: -2 2 4 2 0 2 -2 0 -2 0 2 0 2 0 0 -6 

perceptron #415: -4 2 -4 0 2 2 0 0 -2 2 0 0 0 2 -2 -8 

perceptron #416: 0 -2 0 0 0 0 0 0 0 4 -6 2 0 0 0 -10 

perceptron #417: 0 2 0 2 -2 2 2 0 -2 2 -4 2 0 -2 0 -10 

perceptron #418: -2 2 0 0 0 -2 0 -2 2 -2 2 2 -4 4 0 -10 

perceptron #419: 2 0 0 2 0 2 4 0 -2 2 2 0 -2 0 0 -10 

perceptron #420: 0 0 -2 0 0 -2 0 -2 -2 0 0 0 0 -2 0 -6 

perceptron #421: 2 0 0 0 0 2 0 0 0 0 0 0 0 0 0 -12 

perceptron #422: 2 0 0 0 2 0 -2 -2 0 0 0 0 -2 0 0 -8 

perceptron #423: -1 -1 3 1 3 -3 -1 -1 1 -1 1 1 -1 1 -1 -7 

perceptron #424: 0 2 -2 2 -2 0 2 2 -2 0 2 2 0 0 0 -8 

perceptron #425: 0 0 2 2 2 0 0 2 2 2 0 0 0 -2 -2 -10 

perceptron #426: 0 -2 2 4 0 0 2 2 -2 2 2 2 -2 0 0 -8 

perceptron #427: -5 3 -1 1 -1 1 1 -3 -1 3 5 1 -1 -1 -1 -9 

perceptron #428: -3 3 1 1 1 1 1 1 -1 -3 1 -1 -1 1 -1 -11 

perceptron #429: -3 3 1 -3 1 1 -1 -1 1 -1 1 -1 -1 -1 1 -9 

perceptron #430: 0 0 2 4 4 2 -2 0 0 -2 -2 2 0 0 2 -10 

perceptron #431: -3 1 1 1 3 1 1 1 1 1 1 1 3 3 1 -9 

perceptron #432: -3 -1 -1 -1 -3 -1 1 1 -3 1 -1 1 1 1 -1 -11 

perceptron #433: -1 1 -3 -1 -1 3 -1 -1 -1 -1 1 -1 -3 1 -1 -9 

perceptron #434: 1 1 -1 1 -1 1 -3 3 -1 -1 3 1 1 1 -1 -9 

perceptron #435: 1 1 1 1 -1 -3 -3 -1 1 1 -1 -1 1 3 -1 -9 

perceptron #436: 1 1 1 1 -3 -3 1 1 -1 -3 -3 1 -1 1 1 -9 

perceptron #437: 0 0 -2 2 -2 2 0 2 0 2 -2 2 -2 0 -2 -10 

perceptron #438: -1 3 1 1 -1 -1 1 -1 1 -1 1 -3 1 1 -1 -9 

perceptron #439: 1 -1 1 -1 1 -1 3 -1 -1 -1 -3 -3 -1 -1 1 -9 

perceptron #440: 0 -2 0 -2 0 0 2 0 0 0 0 -2 -2 0 -2 -8 

perceptron #441: 0 0 0 2 2 0 0 2 0 -4 0 -4 2 0 -2 -8 

perceptron #442: -2 2 0 -2 2 0 0 2 0 -2 0 0 0 0 0 -10 

perceptron #443: 1 1 -1 3 1 1 -1 -1 1 -1 -1 -1 -1 1 3 -13 

perceptron #444: -3 1 1 1 -3 1 -1 1 -1 -1 1 1 3 -1 -1 -11 

perceptron #445: 3 1 3 1 1 1 1 1 1 1 5 1 1 -3 -1 -11 

perceptron #446: 0 0 2 -2 0 2 -2 -2 2 0 0 2 -2 -2 0 -8 

perceptron #447: 1 -1 -3 5 -1 3 1 3 1 1 -1 3 -1 -1 -1 -5 

perceptron #448: -2 0 0 2 2 -4 -2 2 0 0 -2 2 0 0 4 -8 

perceptron #449: -1 3 3 3 1 -1 -1 -1 1 -1 -1 3 -1 1 -1 -9 

perceptron #450: 2 2 0 0 0 -2 2 -2 -4 2 0 2 0 0 -2 -8 

perceptron #451: 2 -2 2 0 -2 -2 2 0 0 -2 -2 2 0 0 -2 -8 

perceptron #452: 0 0 2 2 -2 2 0 -2 0 2 0 0 -2 -2 2 -10 

perceptron #453: 1 -3 1 1 -3 1 -1 1 3 1 1 1 -1 -1 1 -9 

perceptron #454: -1 1 -1 -1 1 1 -3 -1 1 1 1 -1 1 1 -3 -11 

perceptron #455: -2 2 0 0 -2 -2 -2 4 -2 2 2 2 0 4 0 -6 

perceptron #456: 1 -1 1 -3 -1 1 1 -1 -1 -1 1 -1 -1 -1 1 -11 

perceptron #457: 1 -1 1 1 1 -1 -1 -1 -1 -1 -1 -3 -1 1 -1 -11 

perceptron #458: 0 0 0 -2 -2 0 0 -2 -2 0 0 0 2 0 -2 -10 

perceptron #459: 0 0 0 0 -2 -4 -2 -2 -2 -2 4 0 -2 -2 -2 -10 

perceptron #460: -1 3 -1 1 1 1 1 -1 -1 -1 1 -1 -1 -5 3 -9 

perceptron #461: -1 1 1 1 -1 1 1 1 1 -1 -1 -1 1 1 1 -7 

perceptron #462: -1 1 -1 -1 -1 3 -1 -3 -1 1 1 1 -1 1 1 -11 

perceptron #463: -1 1 -1 -1 -3 -1 -5 -1 3 -3 1 1 -1 3 -3 -9 

perceptron #464: 1 -1 -3 3 -1 1 1 -1 1 -1 -1 1 -1 1 -1 -9 

perceptron #465: 0 0 -2 2 0 -2 0 0 4 -2 -2 -2 2 2 4 -10 

perceptron #466: 1 1 -1 1 1 -1 1 1 -1 -3 3 1 -1 -1 1 -11 

perceptron #467: 1 -1 1 -1 3 1 3 -1 1 -1 -1 -1 1 -1 1 -9 

perceptron #468: -1 1 1 3 1 -3 1 -3 1 1 1 -1 1 1 -3 -7 

perceptron #469: 1 -1 -1 1 -3 1 1 1 -1 -1 3 1 -1 1 1 -11 

perceptron #470: -1 1 -1 -1 -3 -1 -1 3 1 1 1 1 1 1 -5 -11 

perceptron #471: -3 -1 3 1 1 1 1 3 -1 -1 -1 1 -1 -1 -3 -11 

perceptron #472: -1 1 1 -1 -3 -3 -1 -3 1 -3 -1 -1 1 1 3 -11 

perceptron #473: -3 -1 -1 -1 -3 1 1 1 1 -3 -3 1 1 -3 1 -9 

perceptron #474: -2 0 2 -2 0 2 0 2 -2 2 -2 -2 0 0 -2 -8 

perceptron #475: -1 -3 -1 1 -1 1 -1 3 -1 -3 1 1 1 -1 -1 -11 

perceptron #476: 1 1 3 1 -1 1 -1 1 -1 -1 1 -3 1 3 1 -11 

perceptron #477: 1 -1 -1 1 -1 1 1 -1 -1 -1 -1 -1 -1 -1 1 -11 

perceptron #478: -1 1 1 -1 -1 1 5 1 -1 -1 -1 -1 1 1 -3 -7 

perceptron #479: -2 -2 0 0 -2 0 0 2 -2 2 2 0 0 -2 0 -10 

perceptron #480: 1 3 -3 -1 -1 1 -1 3 1 1 1 -1 1 -1 1 -9 

perceptron #481: -3 3 1 1 -3 -1 1 -1 3 -1 1 1 -3 1 -3 -5 

perceptron #482: 0 -2 0 0 2 0 0 0 -2 0 0 2 -2 0 0 -10 

perceptron #483: 1 -1 1 1 1 1 1 1 1 1 1 -3 1 1 -3 -9 

perceptron #484: -3 1 -1 -3 -1 1 -3 -1 1 1 -3 1 -1 1 1 -9 

perceptron #485: 0 0 0 6 -2 -2 2 0 0 0 2 0 -2 2 -2 -8 

perceptron #486: 2 2 -2 0 0 2 2 0 -2 0 -2 -2 -2 0 0 -12 

perceptron #487: 0 0 0 0 0 -4 0 2 -2 2 2 2 2 2 0 -10 

perceptron #488: -3 -1 3 1 1 1 1 -1 -1 -1 1 3 -3 -1 -3 -9 

perceptron #489: -1 -1 1 1 1 1 -1 1 -1 -3 1 -1 -1 1 3 -11 

perceptron #490: -1 3 1 -1 1 -1 -1 3 -1 -1 1 1 1 1 1 -9 

perceptron #491: 0 2 4 2 -2 0 0 -2 2 0 -2 -4 -2 2 0 -10 

perceptron #492: 1 -1 1 -1 1 -1 -1 -1 3 1 1 1 1 -1 -1 -11 

perceptron #493: 1 1 1 1 1 -1 -3 1 -3 -1 -3 -1 -1 1 1 -9 

perceptron #494: -1 1 -3 1 1 -1 1 1 -1 -3 3 -1 1 1 1 -9 

perceptron #495: 0 4 2 2 2 0 0 -2 -2 2 0 0 -2 0 4 -10 

perceptron #496: -2 0 -4 0 -2 0 2 0 2 0 -2 2 0 -2 0 -10 

perceptron #497: 2 -2 0 2 0 0 -2 -2 0 0 0 4 -2 -4 2 -10 

perceptron #498: 1 -1 1 1 -3 -3 1 1 -3 -3 3 -1 -1 -3 -1 -13 

perceptron #499: 0 -2 0 -2 0 -4 0 0 0 0 2 0 -2 2 0 -10 

perceptron #500: 1 3 1 -1 -1 1 1 -1 -1 -1 -1 1 -3 -1 1 -11 

perceptron #501: 0 2 0 2 -2 -2 2 2 2 0 -2 2 0 2 0 -10 

perceptron #502: 1 -3 -1 1 -1 -1 1 -3 -1 1 1 -1 -1 -3 -1 -11 

perceptron #503: -3 1 1 -1 -3 1 1 1 -1 -1 1 3 -3 -1 1 -7 

perceptron #504: -1 3 1 -1 1 -1 -1 1 -1 -1 3 3 -1 -1 1 -9 

perceptron #505: -2 0 4 0 -2 0 0 -2 0 0 0 0 0 4 -2 -10 

perceptron #506: 1 -1 1 -1 -1 -1 -1 -1 -3 -1 -1 1 1 -1 -1 -11 

perceptron #507: 0 0 2 0 -6 -4 0 0 0 2 2 0 -2 0 0 -8 

perceptron #508: 0 0 4 0 -4 2 -2 -2 -4 0 0 -2 0 0 2 -8 

perceptron #509: -3 -1 -1 -1 -1 -1 1 -3 -1 -1 1 -1 -1 -3 -1 -9 

perceptron #510: 0 -2 2 -2 -2 2 0 -4 2 0 -2 2 0 2 -2 -10 

perceptron #511: -1 -1 1 -1 -1 1 1 1 1 1 1 -1 -1 3 -3 -9 

perceptron #512: -2 2 -2 0 -2 -2 0 2 0 2 0 0 0 0 0 -10 

perceptron #513: 1 -1 -1 1 1 1 1 -1 1 1 -1 1 1 3 1 -11 

perceptron #514: -2 0 0 0 -2 2 0 4 0 -2 0 0 2 0 -4 -8 

perceptron #515: -2 2 2 2 -2 0 2 0 0 2 2 2 0 2 -2 -12 

perceptron #516: -1 1 -3 1 1 3 -1 1 -1 1 -1 3 -1 -1 1 -9 

perceptron #517: 1 1 1 -1 1 1 -3 1 -1 -1 -1 1 1 1 -1 -9 

perceptron #518: 0 -2 0 -2 0 0 0 0 0 0 2 0 -4 0 0 -12 

perceptron #519: 2 0 0 2 0 -4 0 0 2 -2 2 2 -2 0 0 -10 

perceptron #520: -3 1 1 1 -1 -3 1 1 -3 1 1 -1 1 3 -1 -9 

perceptron #521: -1 -1 -1 1 1 -3 -1 -3 1 1 -3 -1 -1 3 3 -9 

perceptron #522: 0 0 2 0 -2 0 2 0 2 0 0 0 0 2 -2 -10 

perceptron #523: 1 1 1 1 3 1 3 3 -1 1 -1 -1 3 -1 -3 -7 

perceptron #524: 2 0 0 2 0 -2 0 -2 -2 2 0 0 0 2 -4 -8 

perceptron #525: 1 -1 1 -1 -3 -1 3 -1 -3 -1 1 1 3 -3 -1 -7 

perceptron #526: -2 -2 0 -2 -4 0 2 0 0 4 -2 -2 0 0 -2 -10 

perceptron #527: 1 -3 3 -1 -1 -3 1 1 1 1 -3 -1 -1 -1 -3 -7 

perceptron #528: 0 2 -2 2 0 0 0 4 -4 0 2 2 0 0 2 -10 

perceptron #529: -2 0 2 2 -2 2 0 0 0 0 -2 -2 0 -2 0 -10 

perceptron #530: 0 2 2 0 -2 2 0 2 -2 0 -2 -2 2 0 -2 -10 

perceptron #531: -2 -2 0 4 0 0 -2 0 2 0 0 0 4 -2 0 -10 

perceptron #532: -2 0 2 2 -2 -2 -2 2 -4 4 2 -4 0 -2 0 -8 

perceptron #533: -4 2 0 2 0 2 0 0 -2 0 -4 0 0 -2 0 -10 

perceptron #534: 2 0 4 2 0 2 2 4 0 0 -2 2 0 0 -4 -10 

perceptron #535: -3 1 3 1 1 -1 3 -1 1 1 -1 5 3 -3 -3 -9 

perceptron #536: -3 -1 -1 -1 -1 1 -1 -1 -1 -1 1 1 -1 -1 3 -11 

perceptron #537: -3 -1 -1 1 -1 3 1 -3 3 1 -1 -1 -1 -1 1 -7 

perceptron #538: 1 1 -1 -1 -1 -3 1 -3 -1 5 -1 -3 -1 1 1 -11 

perceptron #539: 0 -2 2 4 -2 2 2 0 -2 2 2 0 0 0 2 -10 

perceptron #540: -1 -1 -1 1 1 -1 -3 5 1 1 -1 -1 1 -1 -1 -9 

perceptron #541: -2 0 4 -4 0 4 2 -2 2 0 -2 0 2 -2 0 -10 

perceptron #542: 1 1 1 1 3 1 1 1 1 -3 -1 1 1 -1 -1 -11 

perceptron #543: -1 -3 -1 1 1 1 -1 -1 -1 1 1 -1 3 -3 1 -11 

perceptron #544: 0 2 0 0 0 2 -2 2 0 0 -2 -2 -2 -2 0 -10 

perceptron #545: -1 -3 -1 -3 3 1 -1 -1 -1 1 -1 -1 1 1 -1 -9 

perceptron #546: 0 0 2 0 0 -2 0 -2 0 0 -2 0 2 -2 0 -10 

perceptron #547: -2 0 0 2 0 0 0 0 0 -2 0 2 2 0 0 -8 

perceptron #548: -1 -1 1 -1 -3 -3 1 -1 -1 -1 -1 1 1 1 -3 -11 

perceptron #549: 2 0 0 2 2 0 0 2 0 4 0 0 0 0 0 -12 

perceptron #550: -4 0 -2 2 0 0 0 2 0 0 -2 -2 4 -2 -4 -8 

perceptron #551: -2 2 0 0 2 -2 -2 -2 0 0 0 0 2 -2 -4 -8 

perceptron #552: 1 -1 3 -1 -3 3 1 1 -1 1 1 1 1 -1 -1 -11 

perceptron #553: 0 -2 0 0 2 0 0 0 0 0 0 4 0 0 0 -10 

perceptron #554: -1 1 -1 -1 1 5 1 1 -1 -3 1 -3 -1 1 -1 -9 

perceptron #555: -2 0 0 2 0 0 0 0 -2 0 2 0 2 -2 -2 -10 

perceptron #556: -2 -2 0 0 -2 -2 0 0 0 -2 2 0 -2 -2 2 -12 

perceptron #557: -2 2 0 2 0 2 -2 2 0 2 2 2 -2 0 2 -10 

perceptron #558: 2 0 -4 4 0 0 0 0 -2 0 0 -2 0 -2 0 -12 

perceptron #559: 1 -3 3 1 -1 -1 1 3 3 -1 1 -1 1 3 1 -11 

perceptron #560: -4 0 2 0 0 2 2 0 0 2 0 4 4 -4 -2 -8 

perceptron #561: 0 2 -2 2 2 0 -2 -2 2 0 0 2 0 0 -2 -8 

perceptron #562: -1 -3 1 1 1 3 1 1 3 1 1 1 3 -1 3 -9 

perceptron #563: 0 -2 0 0 -2 0 0 0 -2 2 -2 -2 -2 2 0 -10 

perceptron #564: 0 -2 -2 0 -4 -2 0 -2 2 0 2 0 -2 2 0 -10 

perceptron #565: -2 2 2 2 -2 2 0 2 0 0 -2 0 0 0 2 -10 

perceptron #566: 0 0 2 2 2 0 -2 -2 0 -2 2 0 2 0 -2 -10 

perceptron #567: 1 -1 -1 1 1 -1 -1 1 -1 1 -1 3 -1 1 1 -11 

perceptron #568: -2 2 0 2 -2 -4 -2 0 0 2 0 0 -2 -2 0 -8 

perceptron #569: -1 3 3 1 -3 1 -1 1 1 -3 1 -1 -3 3 -1 -9 

perceptron #570: -1 1 -1 -3 -3 1 3 1 1 -1 1 1 1 -1 -1 -9 

perceptron #571: 1 -1 1 -1 -3 -1 1 -3 -1 -1 -3 -1 1 3 1 -7 

perceptron #572: -2 2 0 4 -2 0 -2 0 2 -2 2 0 -2 0 -2 -8 

perceptron #573: 1 1 -1 -3 -1 1 1 1 3 -1 1 3 -1 -3 -1 -11 

perceptron #574: 0 0 0 0 0 0 0 2 -2 0 2 -2 -2 0 0 -12 

perceptron #575: 1 1 3 -1 -1 1 5 -1 3 3 -1 1 3 1 1 -13 

perceptron #576: 0 2 2 2 0 2 2 2 2 0 0 0 2 0 -2 -10 

perceptron #577: -1 -1 1 -1 1 -3 3 1 3 3 -1 -1 3 -1 1 -11 

perceptron #578: -3 3 -1 1 1 -5 1 1 1 1 -1 -1 -1 1 -3 -11 

perceptron #579: -2 2 -2 2 -2 -2 0 2 0 -2 -2 2 -2 0 -2 -10 

perceptron #580: 0 2 0 0 0 0 0 2 0 0 2 -4 -2 0 0 -10 

perceptron #581: -3 3 3 -3 -1 1 3 -1 1 -1 -3 -3 1 -1 -1 -9 

perceptron #582: -2 0 0 -2 0 2 0 0 -2 0 0 0 2 0 0 -8 

perceptron #583: 3 1 3 1 1 -1 -1 -1 3 -1 -1 1 -1 -1 -1 -9 

perceptron #584: -1 1 1 1 -1 -1 -1 -3 -1 -1 3 -1 1 3 3 -9 

perceptron #585: -1 -1 1 1 1 -1 1 -1 -1 1 1 1 -1 -1 -1 -13 

perceptron #586: 2 0 0 0 2 0 0 0 -2 0 -2 0 -2 -2 -2 -8 

perceptron #587: 0 0 0 0 2 -2 2 0 -2 -2 0 2 2 -2 0 -10 

perceptron #588: 2 -4 -4 0 -2 0 2 2 0 0 0 0 2 2 2 -10 

perceptron #589: 0 0 -4 0 2 0 0 0 -2 0 0 0 0 2 -2 -8 

perceptron #590: 0 0 2 2 2 0 0 0 0 0 0 -2 0 2 0 -12 

perceptron #591: 0 4 0 2 0 0 -4 0 0 0 0 0 -2 -2 -2 -10 

perceptron #592: 1 -1 -1 -1 -3 -1 -1 3 1 1 1 -1 -1 -1 1 -11 

perceptron #593: 0 -2 0 -2 -2 2 0 2 0 -2 -2 2 2 -2 2 -10 

perceptron #594: 1 3 3 -1 1 -1 1 1 -1 -1 -1 1 -1 -1 1 -9 

perceptron #595: 1 1 1 3 1 3 1 3 1 -1 -3 1 -1 -1 1 -9 

perceptron #596: -1 -1 -1 -1 1 -1 -1 1 1 1 5 1 -1 1 -1 -9 

perceptron #597: 2 0 -2 -2 0 -2 0 -2 0 -2 2 0 -2 2 0 -10 

perceptron #598: -2 -2 -2 -2 2 2 -2 2 2 0 0 -2 0 0 0 -10 

perceptron #599: -3 -3 -1 -1 -3 -1 3 -3 3 1 3 1 -1 -3 -1 -7 

perceptron #600: -2 0 4 -2 -2 0 2 2 2 2 2 0 -4 0 -2 -8 

perceptron #601: 1 -1 1 -3 -1 -1 -1 1 1 -3 -3 1 -1 -1 1 -11 

perceptron #602: 1 -1 3 -1 1 -1 1 -1 1 -1 -1 -1 1 -1 1 -7 

perceptron #603: -2 2 2 2 2 2 -4 0 -2 0 0 0 -2 2 4 -6 

perceptron #604: 0 0 2 -2 -2 2 0 -4 0 0 0 0 0 0 0 -8 

perceptron #605: -1 1 -1 -1 -1 1 -1 -1 -1 -1 1 -1 -1 1 -1 -11 

perceptron #606: -1 1 -3 -1 -3 -1 1 -1 1 -1 1 1 1 -1 1 -9 

perceptron #607: 0 0 -2 2 -2 0 0 0 -4 0 0 0 0 -2 2 -8 

perceptron #608: -1 -1 1 1 -1 -1 -1 -1 -3 1 1 -1 3 -1 -3 -9 

perceptron #609: 0 0 2 0 -2 -2 2 2 0 0 0 0 0 0 -2 -12 

perceptron #610: 1 -3 1 -1 1 -1 1 1 -1 1 -1 -1 -1 1 -1 -9 

perceptron #611: -1 1 -1 -1 -1 -3 1 1 -1 -1 -1 3 -3 3 -1 -9 

perceptron #612: -5 3 1 1 3 -1 -1 1 1 1 -3 1 -1 1 -3 -9 

perceptron #613: 2 0 0 0 0 0 -2 0 -2 0 -2 2 2 0 0 -12 

perceptron #614: -1 1 1 -3 -1 -1 -3 -1 -1 1 1 -1 -1 -1 -1 -11 

perceptron #615: 1 -1 -1 -1 1 1 1 -3 -1 -1 1 -1 1 -1 -1 -11 

perceptron #616: -1 1 -1 -1 -1 1 1 1 -1 -1 -1 1 1 -1 -3 -13 

perceptron #617: -2 0 0 2 2 0 0 2 0 0 0 0 0 0 -2 -10 

perceptron #618: -1 -1 1 -1 1 -1 -1 -1 -1 -1 -1 -1 -1 1 -1 -9 

perceptron #619: 1 1 -1 1 -1 -1 -1 -1 -1 -1 -3 -3 -1 -1 3 -9 

perceptron #620: -2 2 0 -4 0 2 -2 0 0 -2 2 0 2 0 -4 -12 

perceptron #621: -1 -5 -3 1 3 3 -1 -3 1 1 3 1 -1 -1 -3 -9 

perceptron #622: -1 -1 1 -3 1 1 1 -3 1 -1 -3 -1 -1 -3 -1 -11 

perceptron #623: -2 -2 2 -2 0 -2 2 -4 -2 0 0 0 -2 -2 0 -8 

perceptron #624: -1 -1 -1 -1 1 1 -3 1 1 -1 1 1 1 3 3 -9 

perceptron #625: 1 1 1 1 1 -1 -1 -1 1 1 -1 1 1 -1 1 -11 

perceptron #626: 0 0 0 0 0 2 -2 0 -2 2 0 0 0 0 0 -8 

perceptron #627: -2 0 0 -2 0 -2 0 0 0 0 2 0 -2 2 2 -10 

perceptron #628: -2 0 0 0 -2 0 -4 0 -2 0 2 0 0 2 0 -10 

perceptron #629: 0 0 2 0 -2 -2 2 0 -2 -2 0 0 -2 2 -2 -10 

perceptron #630: 2 0 -4 0 -2 0 -2 -2 0 0 -4 0 -4 0 0 -10 

perceptron #631: -3 -1 1 1 -1 1 -1 1 -1 3 -1 -1 1 -1 1 -9 

perceptron #632: -2 2 2 0 2 0 -2 -2 0 0 2 0 -4 2 2 -8 

perceptron #633: -1 -1 1 3 -1 1 -1 3 -5 -3 -1 3 -1 3 -1 -7 

perceptron #634: -2 0 0 0 0 -2 2 0 0 2 2 2 -2 -2 2 -8 

perceptron #635: -2 2 0 0 -2 -4 2 2 2 0 0 2 -2 2 -2 -8 

perceptron #636: -4 2 0 -2 -4 -2 0 -2 -2 -2 0 4 -2 0 2 -10 

perceptron #637: 2 0 0 0 0 -2 4 0 2 0 0 2 -2 2 -2 -8 

perceptron #638: 0 0 -2 2 2 2 0 0 2 2 0 0 0 0 -2 -12 

perceptron #639: 1 1 -1 3 -3 1 -1 1 1 3 -1 -1 1 -1 -3 -11 

perceptron #640: 1 1 1 1 1 1 1 1 -1 -1 1 -1 1 -1 -1 -11 

perceptron #641: 3 1 1 1 1 -1 1 -1 -1 -1 1 1 -1 -1 1 -11 

perceptron #642: -1 1 1 3 -1 -1 -1 -1 -1 -1 1 -1 -1 1 1 -9 

perceptron #643: -2 0 -2 -2 -2 2 2 -4 0 -2 0 4 2 2 0 -10 

perceptron #644: -2 4 0 2 0 4 -2 -2 2 4 0 0 0 2 0 -10 

perceptron #645: 1 -3 -1 1 -1 3 1 1 -1 -1 -1 5 1 1 -1 -9 

perceptron #646: -2 0 0 2 0 -2 -2 -2 2 2 -2 2 0 -2 -4 -10 

perceptron #647: 1 1 1 1 -1 -1 -1 -1 -1 -1 1 -1 1 1 -1 -11 

perceptron #648: -3 -1 1 3 -3 1 1 -1 3 -1 1 1 -1 3 3 -11 

perceptron #649: 0 -2 0 2 0 0 2 2 0 0 4 2 4 2 0 -10 

perceptron #650: 1 -1 3 -1 -1 -3 -1 1 -1 -1 -1 -1 1 3 1 -11 

perceptron #651: -1 1 1 3 -1 -3 -1 1 1 -1 1 -1 1 1 5 -9 

perceptron #652: -1 1 -1 -3 1 -1 1 -1 1 -1 1 -3 -1 3 1 -9 

perceptron #653: 1 1 1 3 -1 -5 1 -1 1 -3 1 -1 -1 1 -1 -7 

perceptron #654: 2 0 2 -2 0 2 -2 2 0 0 0 -2 -2 0 2 -10 

perceptron #655: 2 -2 4 -2 -4 0 2 2 0 0 0 0 -2 0 0 -8 

perceptron #656: -1 1 3 5 1 -1 1 5 -1 -1 1 3 -1 -1 -1 -7 

perceptron #657: 0 -2 2 -2 -4 -2 0 0 2 -2 2 0 -4 2 -2 -10 

perceptron #658: -3 -1 1 1 1 -1 -1 -1 -1 1 -3 3 1 -1 -3 -13 

perceptron #659: -2 -2 0 0 2 -2 2 0 0 -2 -2 4 0 0 0 -8 

perceptron #660: -1 1 -1 3 -1 1 1 -3 1 -3 1 1 1 -3 -1 -9 

perceptron #661: 1 3 1 1 1 1 -1 -1 -3 -3 -1 1 -1 1 3 -9 

perceptron #662: -1 3 1 -1 1 1 1 1 -3 -1 1 1 -3 3 1 -11 

perceptron #663: -2 0 0 -2 -2 4 -2 2 2 0 2 0 -2 0 2 -8 

perceptron #664: 3 3 -1 3 -1 3 -1 1 -1 3 1 1 1 1 -3 -9 

perceptron #665: 1 -3 1 -1 -1 -1 5 1 1 -1 1 -1 1 -1 -1 -11 

perceptron #666: -1 -1 1 -3 -1 -1 1 1 1 1 1 -1 -1 1 -1 -7 

perceptron #667: -2 0 0 -2 0 -2 0 0 -4 2 -2 -2 0 -2 0 -10 

perceptron #668: -1 -1 -3 -1 1 -1 1 -1 1 1 1 1 1 1 3 -9 

perceptron #669: 2 2 2 -2 -2 2 0 2 2 2 -2 0 -2 -2 0 -8 

perceptron #670: -3 1 3 1 -3 -1 3 3 -1 -1 -1 1 -1 -1 -1 -9 

perceptron #671: 1 -1 -1 -1 -1 3 1 -1 1 1 -1 1 1 -1 1 -9 

perceptron #672: 0 0 -2 -2 0 0 -2 0 -2 2 4 2 0 2 0 -10 

perceptron #673: -5 3 1 -1 -3 3 1 1 -1 1 3 1 -1 -1 -1 -7 

perceptron #674: -2 2 2 -2 0 2 -2 4 0 0 -2 0 0 2 0 -10 

perceptron #675: -1 -3 3 3 -1 -1 1 1 -1 1 -3 -1 -1 1 -1 -9 

perceptron #676: 1 -1 1 1 3 3 -1 -5 -1 -3 1 -1 -1 -1 1 -11 

perceptron #677: -1 1 -1 -1 1 -3 1 -5 1 -1 -3 3 1 -3 -1 -9 

perceptron #678: -1 1 -1 1 -1 -3 -1 3 -1 3 -1 1 1 -1 -3 -9 

perceptron #679: 2 -2 2 0 -2 2 0 2 2 0 2 -2 0 0 0 -10 

perceptron #680: -1 1 3 -1 1 1 1 1 -1 -1 -1 -1 -1 1 -3 -11 

perceptron #681: -2 0 0 0 6 2 0 0 -4 -2 0 2 0 2 0 -10 

perceptron #682: 3 -1 -1 1 3 1 1 1 -1 -1 -1 -1 -5 3 3 -11 

perceptron #683: -2 2 2 0 -4 0 0 2 2 -4 0 2 2 0 -2 -10 

perceptron #684: 1 -1 3 1 1 1 -1 -1 -3 1 1 -3 -1 -1 -3 -9 

perceptron #685: -3 1 1 1 1 -1 -3 1 -1 -3 1 -1 -1 -1 -1 -9 

perceptron #686: 0 2 0 4 0 2 0 0 0 2 2 0 0 4 0 -10 

perceptron #687: 0 0 2 2 -2 0 -2 0 -2 0 0 2 0 2 -2 -10 

perceptron #688: -2 2 0 -2 -2 0 4 0 0 0 0 2 0 0 2 -8 

perceptron #689: 1 -1 3 1 -1 1 3 -5 -1 -1 1 -3 -1 -1 -1 -11 

perceptron #690: -5 -1 3 1 1 1 1 -1 -1 -3 -3 -1 -1 -1 -1 -9 

perceptron #691: 1 1 1 -1 1 1 3 -1 -1 -3 -1 -1 3 -1 -1 -7 

perceptron #692: 2 -2 2 2 -2 2 -2 4 -2 -2 -2 0 0 2 -2 -6 

perceptron #693: -1 1 3 1 3 -1 -1 1 -1 1 1 1 -1 1 -1 -11 

perceptron #694: 1 3 1 1 1 1 1 -3 -3 -1 -3 -1 -1 1 -1 -11 

perceptron #695: 0 -2 -2 0 0 0 -2 2 2 2 0 -2 -2 -2 2 -10 

perceptron #696: 3 -1 1 1 -1 1 -1 1 1 3 1 -1 -1 -1 1 -11 

perceptron #697: -2 0 2 -2 2 0 0 0 2 2 0 -2 0 2 0 -10 

perceptron #698: 2 0 2 0 0 4 -2 0 -2 0 0 0 -2 2 2 -8 

perceptron #699: 1 1 -1 3 -3 -3 -1 -1 -1 -1 1 3 -3 3 -1 -9 

perceptron #700: -4 0 -4 2 0 0 0 0 0 0 0 -2 0 0 2 -12 

perceptron #701: 0 2 -2 -2 0 0 2 0 -2 0 2 2 0 -4 0 -8 

perceptron #702: 1 1 -3 -1 -1 1 1 -1 -1 -1 -1 1 -3 -1 -3 -11 

perceptron #703: 3 -3 -1 1 -1 -3 -1 1 1 3 1 1 1 1 1 -11 

perceptron #704: -1 -5 -1 -1 -1 -1 1 1 1 -3 -1 3 1 1 -1 -7 

perceptron #705: -1 -1 -1 5 -5 -1 1 1 -1 -1 -1 1 1 3 1 -7 

perceptron #706: 1 -3 -1 1 -3 1 3 -1 1 1 1 -3 1 -3 1 -11 

perceptron #707: -1 -1 3 1 1 -1 -1 3 5 -1 -1 1 1 -1 3 -9 

perceptron #708: -4 -4 4 2 0 0 0 -4 2 0 -2 2 -4 2 -2 -6 

perceptron #709: -3 1 1 1 1 -1 1 -1 3 -1 -1 -3 1 3 3 -11 

perceptron #710: -2 0 0 2 4 0 0 0 0 0 2 0 0 0 0 -10 

perceptron #711: -4 0 0 2 2 -2 2 0 0 0 0 -2 -2 0 0 -12 

perceptron #712: 1 -1 -1 3 -3 -1 1 -1 1 -1 -5 -1 1 -1 1 -9 

perceptron #713: 0 0 4 2 -2 -2 0 2 4 0 -6 2 -6 -4 -2 -8 

perceptron #714: 0 0 4 -2 -2 -2 2 0 -2 -2 -2 0 0 0 -2 -10 

perceptron #715: 0 -2 2 0 0 -2 2 -2 0 0 -2 2 0 -6 -4 -8 

perceptron #716: -1 -3 1 1 1 -1 1 -1 3 1 -1 1 -3 -3 1 -7 

perceptron #717: -1 -3 3 -1 1 -3 -1 3 -1 -5 -1 -3 -3 1 -1 -5 

perceptron #718: -3 -1 -1 -3 1 -1 -3 1 1 -1 -1 -1 3 1 1 -9 

perceptron #719: 0 0 2 0 2 0 0 0 0 0 -2 -2 -2 2 -2 -8 

perceptron #720: -2 -2 2 0 2 0 -4 -2 -4 -2 2 -2 0 2 -4 -8 

perceptron #721: 1 -1 -3 -1 1 -3 -1 3 -1 -1 -1 -3 -1 -3 -1 -11 

perceptron #722: -1 1 -1 1 -1 1 -1 -1 -3 -1 -1 -1 -1 1 -1 -9 

perceptron #723: -2 0 2 0 0 -2 -2 2 -4 0 2 -4 -2 0 -2 -10 

perceptron #724: -1 -5 -1 -1 1 -1 3 -3 1 -1 -3 1 -1 -1 -1 -11 

perceptron #725: -1 -1 -1 1 -1 1 1 -1 1 -1 1 1 1 1 -5 -11 

perceptron #726: -1 1 -1 -1 1 1 1 -1 -1 1 -1 1 1 1 1 -9 

perceptron #727: -1 1 1 -1 -3 1 -1 1 1 -1 -1 3 1 -1 -1 -7 

perceptron #728: 2 0 4 -2 0 -4 -2 0 0 0 -2 0 0 0 0 -10 

perceptron #729: 1 1 3 -1 1 -1 -3 1 3 1 -1 -1 -1 1 -3 -9 

perceptron #730: 0 -2 2 0 -4 -2 2 -2 2 2 -2 -2 0 0 -4 -8 

perceptron #731: -1 -1 3 -3 -1 -1 -1 -1 3 -3 1 3 1 1 1 -11 

perceptron #732: -3 -1 3 1 -1 -1 -3 1 -1 1 -1 1 3 1 -5 -9 

perceptron #733: -3 3 1 1 -1 -5 -1 1 -1 1 3 1 1 1 -3 -5 

perceptron #734: -2 0 4 4 -2 0 0 4 -2 0 -2 -2 -2 0 -2 -6 

perceptron #735: -2 -2 0 2 -2 0 0 2 2 -2 -4 0 2 -2 -2 -10 

perceptron #736: -2 -2 0 0 -2 -2 4 0 -2 0 0 2 4 0 0 -8 

perceptron #737: -2 2 2 0 0 0 -2 -2 2 -2 -4 2 2 2 0 -8 

perceptron #738: -1 1 -1 -1 -1 1 -1 -1 -1 1 1 -1 -1 -3 -1 -11 

perceptron #739: -1 3 -1 1 1 1 3 1 -1 1 1 3 -3 -3 -1 -9 

perceptron #740: 3 1 1 -1 3 1 1 -1 -1 -1 -1 -1 1 -1 1 -11 

perceptron #741: 2 0 2 -2 0 -2 0 0 0 0 2 0 2 0 0 -8 

perceptron #742: -4 -2 2 0 -2 2 0 -2 0 0 0 2 -2 0 0 -12 

perceptron #743: -1 -1 3 -1 -1 3 1 1 -1 -1 1 -1 1 -1 -1 -11 

perceptron #744: -3 -1 5 -1 -3 -1 3 -1 -1 -1 1 -1 -1 3 -1 -9 

perceptron #745: -2 0 -2 0 -2 0 0 2 2 2 0 0 2 0 0 -10 

perceptron #746: -1 -1 1 -3 1 1 1 -1 -1 1 1 3 -1 -3 1 -11 

perceptron #747: -2 0 -2 0 2 0 4 -2 2 0 2 2 0 2 -2 -12 

perceptron #748: -3 -1 1 -1 3 1 1 -1 1 3 -3 1 -1 -1 -1 -9 

perceptron #749: -1 -3 3 -1 -1 -1 1 -1 -3 -1 1 -1 3 -1 1 -11 

perceptron #750: -1 -1 -1 1 -1 1 -1 -3 1 -1 1 -1 -1 -1 1 -9 

perceptron #751: 1 3 -1 3 1 -1 -1 -1 -1 1 -1 1 -1 -5 -3 -7 

perceptron #752: 0 0 -2 0 -4 0 0 -2 -4 2 -2 2 2 0 0 -10 

perceptron #753: -1 -1 -1 -3 -1 1 -5 -1 1 -1 -1 1 5 1 1 -9 

perceptron #754: -3 -1 -1 -1 -1 1 1 -1 1 -1 -1 -1 1 -1 -1 -11 

perceptron #755: -1 -1 -1 1 -1 -1 -5 1 1 -1 -1 1 1 3 -3 -9 

perceptron #756: 0 -2 4 2 -2 2 -2 0 0 0 0 2 2 2 0 -10 

perceptron #757: 1 1 1 1 -1 -1 -1 3 -1 1 -1 1 1 -1 1 -11 

perceptron #758: 2 -2 2 0 -2 0 2 2 0 -4 -2 2 0 0 0 -10 

perceptron #759: -2 0 4 0 -4 -2 0 0 0 -2 0 0 0 -2 0 -10 

perceptron #760: -4 -2 2 2 0 2 2 0 -2 2 -2 0 2 0 -2 -10 

perceptron #761: -3 1 1 1 1 -3 -3 -1 -1 -3 -1 -1 1 1 -1 -11 

perceptron #762: -1 -1 -1 -3 -1 -1 -3 5 -1 -1 1 1 1 1 1 -9 

perceptron #763: -2 2 0 -2 -4 0 -2 2 2 2 -2 0 2 0 -4 -8 

perceptron #764: -2 0 -2 -4 -2 0 0 -2 4 0 -2 0 2 2 0 -12 

perceptron #765: -2 0 0 0 0 -2 -4 2 0 0 -4 2 0 -2 0 -10 

perceptron #766: -1 1 1 -1 -1 -3 -3 -1 1 -1 1 -3 1 1 -1 -9 

perceptron #767: -1 3 3 1 -5 -3 -1 1 1 -1 3 -1 -1 1 1 -7 

perceptron #768: 1 -1 -1 -3 -3 3 1 -1 -1 -1 -3 -1 1 -1 1 -9 

perceptron #769: 3 1 3 3 3 -1 -1 -1 1 1 -1 3 1 1 3 -9 

perceptron #770: 0 0 0 0 0 4 0 2 -2 0 2 -2 2 2 2 -10 

perceptron #771: 2 0 -2 -4 0 -2 0 0 -2 0 0 2 0 4 0 -8 

perceptron #772: -2 -4 0 4 -2 0 2 0 0 2 0 -2 2 0 2 -10 

perceptron #773: 4 0 0 2 2 4 -4 0 0 0 0 -2 0 0 -4 -6 

perceptron #774: 2 0 0 2 0 2 -2 -2 0 -2 4 0 2 0 2 -8 

perceptron #775: -4 0 2 2 0 0 2 2 0 -2 4 2 -4 0 0 -8 

perceptron #776: -1 -1 1 3 -1 1 1 3 1 1 3 -1 1 1 -1 -11 

perceptron #777: -2 2 -4 0 0 -2 -2 -2 0 2 0 0 -2 0 0 -10 

perceptron #778: 1 -1 3 1 1 -1 -1 3 -1 -1 1 -1 1 -1 1 -9 

perceptron #779: 0 -2 2 0 2 0 0 0 0 0 2 0 2 2 -2 -10 

perceptron #780: 2 0 2 -2 -2 -2 0 0 -2 0 0 0 -2 -2 0 -12 

perceptron #781: 1 -1 -3 -1 1 5 1 -1 1 3 1 -1 -3 1 1 -9 

perceptron #782: 0 -2 0 0 2 0 -2 0 0 2 2 -2 0 2 2 -10 

perceptron #783: 3 1 -1 -1 -1 -1 -1 1 1 -1 1 -1 1 -1 1 -11 

perceptron #784: 0 0 0 0 0 -2 2 2 0 0 0 0 2 2 0 -12 

perceptron #785: -4 0 2 2 0 0 -4 2 -2 0 2 0 4 0 0 -8 

perceptron #786: 0 2 0 0 -2 0 -2 2 -2 -2 2 -2 -2 0 -4 -6 

perceptron #787: 1 1 -1 -1 1 -1 -1 -1 1 1 3 -1 -3 1 1 -9 

perceptron #788: 1 1 1 3 -1 1 1 1 3 -1 -1 3 1 -3 1 -13 

perceptron #789: -5 -1 1 -1 -3 -1 1 1 3 3 1 -1 -1 -3 -1 -7 

perceptron #790: 2 2 2 0 0 2 -2 2 2 0 0 0 2 0 0 -10 

perceptron #791: -1 3 5 -1 1 5 -1 1 -1 1 -1 3 3 1 -1 -9 

perceptron #792: -4 -2 4 -2 -2 2 0 -2 -2 2 0 2 0 2 0 -8 

perceptron #793: 2 0 2 -4 0 2 0 2 0 -2 -2 2 0 0 0 -10 

perceptron #794: 1 -1 1 1 -1 1 1 -3 -1 -3 3 -1 1 1 3 -9 

perceptron #795: -1 -1 -3 1 1 -1 1 -1 -1 -1 -1 -1 -1 1 -3 -9 

perceptron #796: 0 -2 0 -2 0 0 0 4 0 0 0 0 -2 0 -2 -8 

perceptron #797: -3 3 -1 3 -3 1 -1 1 -5 -1 1 -1 3 1 -1 -7 

perceptron #798: 1 -1 1 -1 1 -1 1 3 1 -1 1 1 -3 1 1 -11 

perceptron #799: 1 -1 -3 -1 -3 -3 -1 1 -1 1 1 5 1 1 1 -7 

perceptron #800: 2 -2 2 0 2 -4 2 -4 0 2 0 2 -2 2 0 -10 

perceptron #801: -2 -2 0 2 0 0 -2 0 -2 0 2 0 2 0 -2 -8 

perceptron #802: -1 -3 1 3 1 -1 -1 1 -1 1 1 1 -1 -1 3 -9 

perceptron #803: -3 -1 -1 1 -1 -3 -1 1 3 -5 1 -3 1 -3 -1 -9 

perceptron #804: 0 2 0 0 0 6 0 2 0 -2 2 0 0 0 0 -10 

perceptron #805: -2 2 0 0 0 2 0 2 0 0 0 -2 0 0 -2 -12 

perceptron #806: -1 1 1 -1 3 1 -1 1 1 -1 -1 -1 -1 -3 1 -11 

perceptron #807: -2 0 -2 2 2 2 2 0 -2 0 4 0 0 0 2 -8 

perceptron #808: 2 0 0 0 2 0 0 0 -2 0 0 2 2 0 0 -10 

perceptron #809: 1 1 3 -1 1 -3 1 -3 -1 -3 1 1 1 -1 -1 -7 

perceptron #810: 0 0 4 0 2 2 0 0 2 0 0 0 0 0 -2 -12 

perceptron #811: 0 2 -2 0 -4 -2 0 4 2 0 -2 0 2 -2 2 -10 

perceptron #812: -2 0 -2 2 0 -2 0 0 -4 -2 2 2 2 2 0 -12 

perceptron #813: 1 -1 1 3 -1 1 1 -1 -1 -1 1 -1 1 -1 3 -11 

perceptron #814: 2 0 -2 4 -4 0 -2 -2 -2 0 -2 0 -2 0 0 -10 

perceptron #815: -3 1 -1 1 -3 -5 1 -1 -1 1 -1 -1 3 -1 -1 -9 

perceptron #816: 3 1 1 -1 1 -1 -1 -1 -1 1 -1 -1 3 1 1 -11 

perceptron #817: 1 -1 1 -3 -1 -1 3 -3 1 -1 -1 1 -1 -1 -3 -11 

perceptron #818: 2 2 -2 2 2 -4 0 0 0 0 2 0 4 0 2 -10 

perceptron #819: -3 -1 -1 -1 1 -1 -1 -3 1 -1 -1 -1 -1 -1 -1 -11 

perceptron #820: -4 -2 2 -2 -2 0 0 0 0 2 0 2 0 0 2 -8 

perceptron #821: 1 1 -3 -1 1 3 -1 -1 1 1 1 -1 -1 -1 -1 -11 

perceptron #822: 0 2 -2 -2 0 2 -2 0 0 0 -2 2 2 0 0 -10 

perceptron #823: 1 -1 3 -3 1 -1 -1 -1 1 1 1 -1 -3 -1 -1 -11 

perceptron #824: 1 -1 1 -1 -1 -1 -1 -1 -3 3 -1 -1 1 1 1 -11 

perceptron #825: 2 0 0 0 0 -2 0 2 0 -2 0 2 -2 -4 -2 -8 

perceptron #826: 1 -1 1 1 3 -1 1 1 1 1 -1 1 -1 1 1 -11 

perceptron #827: 1 1 -1 -3 -1 3 1 1 1 1 -3 -1 1 1 1 -11 

perceptron #828: 0 -2 0 -4 0 0 0 2 2 2 -2 0 0 -2 -2 -14 

perceptron #829: -1 1 -1 -1 -3 -1 1 1 -1 3 1 -1 1 -1 3 -11 

perceptron #830: -1 -1 -1 1 3 3 -1 -1 1 1 -1 -1 -3 -1 1 -7 

perceptron #831: 1 -3 -1 3 1 1 -1 -1 -1 1 -3 -3 -3 -1 -1 -11 

perceptron #832: -2 2 -2 0 -2 -2 2 -2 2 4 -2 0 2 0 -2 -10 

perceptron #833: -1 1 1 1 -1 -1 1 1 -1 1 1 -1 -1 1 -1 -9 

perceptron #834: 2 -2 0 0 0 0 2 -2 0 0 0 -2 2 2 -2 -12 

perceptron #835: 1 -1 3 -1 -1 1 1 -3 -1 1 -1 1 1 1 3 -13 

perceptron #836: 1 -3 -1 -5 -1 1 -1 -3 1 -1 -3 1 -1 -1 3 -9 

perceptron #837: -1 1 1 -1 1 1 -5 1 -1 1 -1 -1 1 1 -1 -9 

perceptron #838: 0 -2 2 0 0 2 0 0 -2 -2 0 -2 0 2 0 -10 

perceptron #839: 1 -3 3 1 -1 -1 -1 -1 3 -3 1 3 1 -3 1 -9 

perceptron #840: -5 -1 -1 -3 -1 3 -1 1 3 -1 1 -1 1 -1 -1 -9 

perceptron #841: 0 -2 -2 2 2 0 0 2 -2 4 0 0 2 0 -2 -10 

perceptron #842: -4 2 0 -2 0 -2 -2 0 0 2 2 0 0 0 0 -10 

perceptron #843: 1 1 1 1 1 -1 -1 1 -1 -3 -3 1 1 -1 -1 -11 

perceptron #844: 0 2 0 0 0 2 0 0 2 -2 0 2 2 2 2 -10 

perceptron #845: -1 -3 1 1 -1 1 1 1 -3 -1 -1 1 1 1 1 -13 

perceptron #846: -1 -3 3 -1 1 -1 -1 -1 -1 1 -1 1 -1 -1 1 -9 

perceptron #847: 4 0 2 2 0 -2 2 -2 0 0 0 -2 2 -2 0 -10 

perceptron #848: 0 -2 -2 0 -2 2 0 0 2 0 -2 2 -2 2 0 -10 

perceptron #849: -3 -1 -1 1 -3 3 3 3 1 -3 -1 -1 1 1 -1 -7 

perceptron #850: -1 -1 -1 -1 -1 -1 3 -1 1 3 1 1 -1 -1 3 -9 

perceptron #851: -1 1 1 1 -1 -1 -1 1 -1 -1 -1 -3 3 1 1 -9 

perceptron #852: 0 2 -2 2 0 -2 0 0 2 0 -4 -2 2 0 -2 -8 

perceptron #853: 0 2 0 0 0 2 0 0 0 -2 -2 -2 0 0 0 -10 

perceptron #854: 5 1 -1 1 1 -1 3 1 -1 -1 1 1 -5 -1 3 -9 

perceptron #855: 4 2 -2 -2 2 -2 2 0 2 2 0 2 0 2 0 -10 

perceptron #856: -1 -1 1 1 -1 -1 -3 1 1 -3 -1 5 1 1 1 -9 

perceptron #857: 0 -2 0 0 0 0 2 0 -2 -4 0 2 0 0 0 -10 

perceptron #858: 1 1 3 3 1 3 3 1 -1 -3 3 -1 1 1 -3 -9 

perceptron #859: -5 3 -1 -1 1 1 1 1 -1 -3 3 -1 -1 -1 1 -11 

perceptron #860: 0 -2 2 0 0 -2 2 0 0 2 -2 -4 0 0 0 -10 

perceptron #861: 2 2 -2 -4 2 0 0 2 0 0 2 -2 -2 2 -2 -10 

perceptron #862: -2 2 -2 -2 -2 0 0 0 -2 -2 2 -2 2 -2 0 -10 

perceptron #863: -2 0 0 0 -2 2 2 -2 2 0 0 0 2 0 2 -10 

perceptron #864: -1 -1 1 3 -1 -1 -1 1 -1 -1 3 -1 -3 3 -1 -9 

perceptron #865: 1 -1 3 1 -1 -1 -1 3 -1 1 1 -1 1 1 1 -9 

perceptron #866: 2 2 0 -2 2 0 2 0 2 0 0 -2 0 -2 4 -10 

perceptron #867: 3 -1 1 -1 -1 1 1 1 -1 1 -1 1 -1 1 -1 -9 

perceptron #868: 0 -2 -2 0 -2 0 -2 0 -2 2 0 2 -4 -2 -2 -8 

perceptron #869: 0 0 2 2 -4 -2 -2 0 2 0 2 2 -2 2 0 -10 

perceptron #870: 2 0 0 2 0 -2 0 0 -2 0 -2 2 -2 0 0 -10 

perceptron #871: 0 0 2 2 0 0 0 2 0 0 0 0 -2 0 0 -12 

perceptron #872: -1 -1 1 -1 -1 1 -1 3 -1 -1 1 -1 1 3 1 -11 

perceptron #873: 0 2 0 0 0 2 2 2 0 0 0 0 0 0 -4 -10 

perceptron #874: 2 -2 -2 0 0 2 0 0 0 -2 0 0 0 -2 -2 -10 

perceptron #875: -1 -1 -1 -1 -1 1 -1 -1 1 -1 -3 -3 1 -1 -1 -11 

perceptron #876: 1 1 -3 1 -5 1 -3 1 1 -3 1 -1 1 -1 -1 -11 

perceptron #877: -1 -1 1 -1 -3 -3 -3 -1 -1 -3 -1 3 -1 -1 -1 -9 

perceptron #878: 0 0 0 2 0 0 2 -2 -2 -2 0 2 0 0 0 -8 

perceptron #879: -6 0 2 0 -2 -2 -2 -2 -2 -2 0 0 4 -4 -2 -8 

perceptron #880: 0 0 0 0 -2 -2 2 -2 -2 2 0 -2 0 0 -4 -8 

perceptron #881: 1 -1 -1 -1 -3 3 1 3 1 -3 -1 3 -1 -3 1 -11 

perceptron #882: 1 -3 3 -1 -1 -1 -1 -1 1 -3 -3 -1 1 1 1 -9 

perceptron #883: -2 -2 2 2 -2 0 2 0 0 4 -2 0 2 2 -2 -8 

perceptron #884: 0 0 4 0 0 -2 2 2 -2 2 2 0 -2 2 4 -10 

perceptron #885: 0 -2 0 -2 0 -2 -4 0 -4 0 2 0 2 0 0 -10 

perceptron #886: -1 -1 -1 -1 3 1 -1 -1 -1 1 1 1 1 1 -1 -11 

perceptron #887: -1 1 -1 -1 -1 -1 -1 -1 -1 1 1 -1 1 1 1 -9 

perceptron #888: -3 1 -1 1 -1 -1 -1 1 1 1 1 1 3 -1 1 -11 

perceptron #889: -1 -3 3 1 3 1 -1 1 1 -1 -3 1 -1 -3 1 -9 

perceptron #890: 0 0 2 2 0 0 0 -4 0 -2 0 0 2 0 -4 -10 

perceptron #891: -3 -1 -1 1 -1 1 -1 1 5 -3 1 1 1 1 1 -9 

perceptron #892: 0 0 0 -2 0 0 -2 2 2 -4 0 -2 -2 0 0 -12 

perceptron #893: -3 -1 3 1 -3 1 1 -3 -1 -1 1 -1 3 1 1 -9 

perceptron #894: 0 -2 2 -2 0 2 0 0 0 -2 2 0 0 -2 0 -8 

perceptron #895: -1 1 3 1 1 -1 1 -1 -1 3 -1 3 1 1 -1 -11 

perceptron #896: 3 -1 1 1 -1 3 -1 1 -1 -1 1 3 3 -1 -1 -9 

perceptron #897: 0 2 2 2 0 2 -2 4 0 0 -2 2 2 0 -2 -10 

perceptron #898: 2 0 -2 0 2 -2 0 0 4 0 0 -2 -2 0 2 -10 

perceptron #899: 0 -4 2 -2 0 0 2 0 2 0 -2 -2 2 -2 0 -10 

perceptron #900: 1 1 1 -1 1 -3 3 -1 -1 -1 1 1 1 1 -3 -11 

perceptron #901: 0 0 2 -2 0 0 0 0 2 -2 -2 0 -2 0 2 -10 

perceptron #902: 0 0 2 -2 -2 0 -2 2 2 0 -2 -2 0 2 2 -10 

perceptron #903: 2 0 2 0 2 0 2 -4 0 0 0 2 0 2 0 -8 

perceptron #904: -2 0 -2 -2 -2 0 0 0 2 0 0 2 2 0 0 -10 

perceptron #905: -5 -1 1 -1 1 1 3 -1 1 -3 1 3 -1 -1 1 -11 

perceptron #906: -1 1 -3 1 -1 -5 1 3 -1 1 -1 1 1 -1 1 -7 

perceptron #907: 0 2 0 -2 0 0 2 -2 2 0 0 0 2 0 0 -10 

perceptron #908: 1 -3 1 1 -1 1 -1 1 -3 1 -1 -1 -1 -1 -3 -9 

perceptron #909: -3 1 1 1 -3 1 1 3 -1 -3 -1 3 1 -3 5 -9 

perceptron #910: -1 -1 -3 -1 -1 -3 1 1 1 1 1 -1 1 -1 -1 -9 

perceptron #911: 1 1 -3 1 1 -1 1 1 -3 1 -1 1 -1 -1 1 -9 

perceptron #912: 1 1 1 -1 1 3 -1 -3 1 1 1 -3 1 1 1 -11 

perceptron #913: 1 -1 1 3 3 1 1 -1 -1 -1 3 -1 3 1 1 -9 

perceptron #914: 0 2 -2 0 0 0 0 2 0 -2 0 -2 0 0 -2 -12 

perceptron #915: 1 1 5 1 -1 -3 1 -1 1 -1 3 3 1 -3 -1 -7 

perceptron #916: -1 -1 -1 3 -3 -1 -1 1 -1 -1 3 3 -3 1 5 -9 

perceptron #917: -3 1 -1 5 -1 -1 -1 5 3 -1 3 -1 -3 1 3 -9 

perceptron #918: -1 1 1 -1 -1 -1 -3 -1 -3 3 1 3 -1 1 1 -9 

perceptron #919: -1 1 -1 3 1 -3 -3 1 1 1 -1 -1 1 1 1 -9 

perceptron #920: 1 3 3 -1 -3 1 -1 1 -1 -1 1 1 3 1 1 -9 

perceptron #921: -2 2 0 -2 -2 0 0 0 2 0 0 0 0 0 0 -10 

perceptron #922: -2 -2 0 2 0 0 -2 0 0 -2 4 -2 0 -2 0 -8 

perceptron #923: 1 3 -3 -1 -1 -1 -1 -1 -1 -1 3 3 1 1 1 -9 

perceptron #924: -1 -1 3 1 3 3 -1 1 1 -3 1 -1 -1 1 1 -9 

perceptron #925: 0 0 4 0 2 2 2 0 -2 2 2 -2 0 0 0 -8 

perceptron #926: 6 0 -2 0 0 0 2 -2 2 0 0 -2 -2 2 -2 -8 

perceptron #927: 1 -1 3 1 1 -3 -1 1 1 -1 -1 1 -1 -1 1 -9 

perceptron #928: -1 -1 3 -3 -1 1 1 3 1 -1 1 1 -1 1 -1 -9 

perceptron #929: -1 1 3 -1 -1 1 1 1 -1 -1 -1 1 1 1 1 -11 

perceptron #930: 0 -2 0 2 2 2 2 2 -2 0 0 2 2 0 0 -10 

perceptron #931: -1 -1 -1 -1 -1 -3 -3 1 -3 -1 1 1 -1 -1 1 -9 

perceptron #932: 0 -2 0 4 0 2 0 2 -2 0 0 -2 -2 0 -2 -10 

perceptron #933: 2 2 2 0 2 0 0 0 0 -2 -2 0 0 0 0 -6 

perceptron #934: -2 0 0 0 0 -2 0 0 -2 -2 -4 0 0 2 0 -12 

perceptron #935: 0 0 -2 2 0 -2 2 2 0 -2 -2 -2 -2 -2 4 -8 

perceptron #936: 0 -2 0 0 2 -2 -2 0 2 -2 0 0 -2 0 0 -10 

perceptron #937: 0 -2 -2 0 -2 2 2 0 0 -2 0 -2 -4 -2 -2 -10 

perceptron #938: -1 -1 1 -1 -1 3 3 1 1 1 1 3 1 1 -1 -9 

perceptron #939: 2 0 0 0 0 -2 2 -2 0 2 0 0 -2 0 0 -10 

perceptron #940: 1 -1 1 1 -3 1 -1 -1 -1 -1 1 -1 3 -1 -3 -7 

perceptron #941: -2 -2 -2 0 4 0 -2 -2 -2 0 2 -2 0 -2 0 -10 

perceptron #942: -2 0 -4 4 0 0 -2 2 -2 0 -2 0 2 0 -4 -12 

perceptron #943: -1 1 -3 1 1 -1 -1 3 -1 1 -3 -1 -1 -1 3 -11 

perceptron #944: 1 -1 -1 1 -1 1 -1 3 -1 -1 -3 -1 -1 1 1 -9 

perceptron #945: -1 3 1 -1 1 1 -1 -1 -1 1 1 -3 -3 3 1 -11 

perceptron #946: 0 -2 2 -2 2 0 -2 0 2 2 2 0 0 2 -2 -12 

perceptron #947: -3 -1 -1 1 1 3 1 1 1 -1 -1 -1 1 1 -1 -7 

perceptron #948: -1 -1 -1 -1 1 1 -1 -1 1 -1 -1 1 -1 1 -1 -11 

perceptron #949: 5 -1 -1 -1 -1 -3 1 -1 1 -1 1 1 -1 -3 1 -11 

perceptron #950: 0 -2 0 0 2 0 2 2 0 2 2 2 0 -2 -2 -10 

perceptron #951: 1 1 -1 3 1 -1 1 -1 -1 3 -1 -1 3 1 1 -9 

perceptron #952: -1 1 1 -1 1 -1 3 -1 -1 1 1 3 1 1 1 -11 

perceptron #953: -1 1 3 -1 1 1 1 1 1 -3 1 -1 -1 -1 1 -9 

perceptron #954: 1 3 3 3 1 3 1 -1 1 1 1 1 -1 1 -1 -7 

perceptron #955: -1 1 -1 -1 -1 -1 1 1 -1 -1 -1 1 1 -3 1 -11 

perceptron #956: 2 -2 2 2 2 -2 0 0 -4 2 -2 0 0 0 -2 -12 

perceptron #957: -3 1 -1 1 -1 -1 -1 1 1 1 -1 -1 1 -1 -1 -11 

perceptron #958: -3 -1 -1 3 -1 -1 -3 -1 -3 3 -1 -1 -1 -1 1 -5 

perceptron #959: -1 -1 -1 -1 1 3 -1 -1 -3 1 -1 1 -1 1 1 -9 

perceptron #960: -3 1 1 -3 1 3 1 1 1 -1 -1 -1 1 1 3 -9 

perceptron #961: -1 -1 1 1 1 1 1 1 3 -1 -1 3 1 1 1 -11 

perceptron #962: -1 1 -1 -1 -1 1 -1 1 1 -3 1 1 1 1 -3 -11 

perceptron #963: 1 -1 1 1 -1 -1 1 1 1 1 1 1 1 1 -1 -11 

perceptron #964: 1 -3 1 3 1 -1 -1 -1 -1 -1 -1 -1 -1 -3 -3 -9 

perceptron #965: -1 1 -3 1 -1 1 -3 1 1 3 -3 -3 1 -3 -1 -11 

perceptron #966: 1 -1 1 1 3 1 -1 1 -1 -1 -1 -1 1 1 -3 -9 

perceptron #967: -1 1 1 1 -1 -1 3 -1 -1 3 -1 1 -3 -1 -1 -9 

perceptron #968: -2 2 0 0 4 0 -2 0 -2 2 0 4 -2 0 2 -8 

perceptron #969: 0 2 2 0 2 -2 2 2 -2 0 0 -4 -4 2 0 -10 

perceptron #970: 0 0 4 0 0 -2 4 0 -2 -2 -2 2 0 -2 -2 -8 

perceptron #971: -1 -1 -1 1 -1 -3 -1 -1 -3 1 -1 1 3 1 -1 -9 

perceptron #972: 2 4 -2 0 0 0 0 0 0 2 0 2 0 2 2 -10 

perceptron #973: -1 -3 -1 -3 -1 1 3 -1 1 -1 1 1 1 1 1 -9 

perceptron #974: 0 0 2 0 -2 -2 -2 2 0 0 -2 2 -2 0 2 -8 

perceptron #975: 0 0 0 2 2 0 2 0 0 0 -2 0 2 0 2 -8 

perceptron #976: 0 0 -2 0 0 0 -2 2 -2 0 0 0 2 2 2 -14 

perceptron #977: 1 1 -1 3 3 -1 1 1 3 -1 1 -1 -1 1 1 -11 

perceptron #978: -3 1 1 3 -3 -1 1 1 -3 3 1 1 -1 -1 -1 -11 

perceptron #979: -1 -3 -3 3 -1 -3 1 1 1 -1 1 1 -1 -1 1 -9 

perceptron #980: 0 0 0 -2 2 0 2 0 -4 0 0 2 2 0 2 -10 

perceptron #981: 0 0 -2 0 0 2 -2 2 -2 -2 0 0 2 0 0 -10 

perceptron #982: 1 -1 1 -1 -1 -1 -1 -1 -1 -1 -1 3 1 1 -1 -9 

perceptron #983: -2 0 2 -2 2 2 0 2 0 0 0 2 -2 0 -2 -8 

perceptron #984: -1 -3 1 1 -1 1 -1 -1 -3 1 3 -1 -3 -1 -5 -9 

perceptron #985: -2 -2 0 0 0 4 -4 2 2 2 0 2 0 -4 2 -10 

perceptron #986: -1 -1 3 -1 -1 -1 1 1 -1 1 3 3 1 1 1 -9 

perceptron #987: 0 -2 2 0 2 0 -2 0 0 0 0 0 0 2 0 -12 

perceptron #988: -2 0 -2 2 -2 0 0 0 0 2 4 -4 2 0 0 -8 

perceptron #989: 0 0 0 0 -2 -2 -2 -2 -2 0 0 0 2 0 2 -12 

perceptron #990: -2 0 -2 4 0 -2 0 -2 -2 0 2 0 2 0 2 -10 

perceptron #991: 0 0 0 -4 0 2 0 0 2 0 0 0 0 0 0 -12 

perceptron #992: -2 0 0 0 2 -2 0 0 -2 0 0 0 0 0 0 -10 

perceptron #993: -3 3 -1 1 -1 -1 3 3 -1 -1 1 1 -1 -1 3 -9 

perceptron #994: -1 1 -1 3 1 1 -1 1 -3 -3 -1 -1 1 -1 1 -9 

perceptron #995: -1 1 1 -1 -1 -3 -3 -1 -1 -1 -1 -1 1 1 1 -9 

perceptron #996: -1 1 3 1 -5 1 -1 -1 1 1 3 -1 -1 -3 1 -11 

perceptron #997: -1 -1 -1 1 1 -1 1 -3 -1 -3 -1 -1 -1 -1 -1 -9 

perceptron #998: 1 -3 -1 1 1 1 -1 3 -1 -1 -1 -1 -1 1 -1 -11 

perceptron #999: -2 0 2 -4 0 2 -2 2 2 0 0 -4 0 0 0 -8 

perceptron #1000: -1 1 5 3 1 1 1 -1 3 3 -3 -1 3 -1 1 -9 

perceptron #1001: 1 -1 -1 1 3 -1 -5 -1 1 1 1 -1 -3 3 -1 -9 

perceptron #1002: -1 1 1 1 3 -3 -3 1 -1 1 1 -3 -3 -1 -1 -9 

perceptron #1003: 1 -1 1 -1 -1 1 -3 1 -1 3 1 -3 -1 1 -1 -13 

perceptron #1004: 0 2 0 0 0 0 0 0 0 -2 2 0 2 0 0 -12 

perceptron #1005: 0 0 -2 -2 -2 0 -2 0 -2 0 -2 2 0 2 0 -12 

perceptron #1006: -1 -3 -1 -3 -1 -1 1 -1 1 -1 -1 1 -1 -1 1 -11 

perceptron #1007: 1 -3 -1 1 1 3 -1 1 -1 1 1 -1 -1 1 1 -11 

perceptron #1008: 0 2 2 0 2 2 -2 0 2 0 -2 0 0 0 2 -12 

perceptron #1009: 2 0 2 0 2 0 0 0 0 0 0 0 2 2 -2 -10 

perceptron #1010: 0 2 2 2 -2 -2 0 0 0 0 4 0 2 -2 0 -10 

perceptron #1011: -2 0 2 0 -2 -2 0 -2 0 -4 0 0 2 2 2 -10 

perceptron #1012: -1 -1 1 1 -1 -1 1 3 -1 -1 -1 -1 1 1 -1 -9 

perceptron #1013: -1 3 1 -1 1 1 3 -1 -1 -5 -3 -1 -1 5 3 -11 

perceptron #1014: -2 -2 0 -2 0 -2 0 0 0 -2 0 2 0 0 0 -12 

perceptron #1015: -1 1 -1 3 -3 -1 1 -3 -1 1 1 1 -1 -1 1 -11 

perceptron #1016: -3 1 -1 1 -1 -1 1 -1 -1 -3 -3 -1 -1 -1 1 -11 

perceptron #1017: -2 -2 2 2 0 0 -4 2 -2 -2 -2 -2 -2 0 -2 -6 

perceptron #1018: 2 0 2 0 0 0 2 0 0 -2 2 -2 2 0 0 -10 

perceptron #1019: 1 -1 1 -1 -1 -5 -1 1 -1 5 1 1 3 -3 -1 -11 

perceptron #1020: 2 0 -2 0 -2 -2 -4 0 2 0 0 0 4 2 0 -10 

perceptron #1021: 2 0 -2 2 0 0 0 0 -2 0 0 -2 0 0 0 -10 

perceptron #1022: -1 -1 -1 -1 1 -3 3 -1 -3 -1 1 -1 1 -3 -1 -9 

perceptron #1023: -1 3 -1 1 1 -1 -1 -1 -5 -1 3 3 -3 -1 -1 -9 

perceptron #1024: -1 -1 -3 -3 -3 -1 3 -1 -5 3 -1 -1 3 -3 -3 -9 

perceptron #1025: -1 1 -1 1 -1 1 1 1 -1 1 -3 -3 -1 -3 1 -9 

perceptron #1026: 0 -2 -4 2 0 0 0 0 0 0 0 0 4 0 2 -10 

perceptron #1027: -3 1 -1 -3 1 -1 1 -1 -3 1 -1 1 -1 -1 3 -7 

perceptron #1028: -2 -2 0 -2 0 2 0 0 -2 4 0 0 0 2 2 -10 

perceptron #1029: 0 -2 0 0 0 0 0 2 -2 0 -2 0 2 -2 0 -10 

perceptron #1030: -1 -1 1 -1 3 -1 1 5 -3 1 1 1 1 -1 -1 -11 

perceptron #1031: 2 -2 0 -2 2 -2 0 -2 -2 -4 0 0 0 -2 0 -10 

perceptron #1032: -1 1 -3 -1 -1 1 1 3 -1 -1 1 -1 1 1 -3 -9 

perceptron #1033: 1 -1 1 1 3 1 -1 1 -1 3 1 -1 1 -3 1 -9 

perceptron #1034: -2 2 2 0 0 0 0 0 0 2 0 2 0 2 -2 -10 

perceptron #1035: -3 1 1 -1 3 3 1 1 1 1 -1 1 -1 -1 1 -7 

perceptron #1036: -3 -1 -1 -1 1 1 3 -1 1 -1 -1 1 3 -1 1 -11 

perceptron #1037: 1 3 -1 -1 -1 1 3 3 -5 -1 -1 1 -1 -1 3 -11 

[...]

perceptron #1722: -1 1 -3 1 -1 1 1 -1 -1 -1 -1 1 3 -3 1 -11 

perceptron #1723: -2 2 0 0 0 0 0 2 0 2 -2 0 0 -2 0 -12 

perceptron #1724: 0 0 0 0 2 0 0 -4 2 2 2 -4 0 4 -2 -8 

perceptron #1725: 0 0 0 0 -2 -2 0 -2 0 0 -2 2 0 0 0 -10 

perceptron #1726: -1 -1 1 -3 -1 1 -1 -3 1 1 1 -1 1 3 -1 -11 

perceptron #1727: -2 0 0 4 2 0 -2 0 -2 4 2 0 0 0 -2 -10 

perceptron #1728: -1 3 -1 1 -1 1 3 1 -1 -3 -1 3 -3 1 -3 -9 

perceptron #1729: -2 0 2 2 0 0 -2 0 -2 4 2 0 0 0 -4 -10 

perceptron #1730: -1 -1 -1 -1 -1 1 1 1 1 -1 -1 5 -1 3 -1 -11 

perceptron #1731: -3 -3 1 -1 -1 -3 1 -1 -1 1 -3 3 -1 -3 -1 -9 

perceptron #1732: -1 1 1 -1 -1 -1 3 1 1 1 1 1 -1 1 -1 -7 

perceptron #1733: 3 1 -1 1 -1 3 3 -1 3 -1 -1 -1 1 -3 1 -11 

perceptron #1734: 1 -1 1 3 3 1 1 3 -1 1 -1 -1 -3 -1 1 -9 

perceptron #1735: 1 1 3 1 1 1 3 3 -1 -3 -1 -1 -1 1 -1 -9 

perceptron #1736: 0 2 -2 0 0 -2 2 0 0 -2 0 0 -2 0 0 -12 

perceptron #1737: 3 -1 1 1 1 -1 1 1 -1 -1 -1 -1 -1 -1 -1 -9 

perceptron #1738: 0 0 0 2 2 2 4 2 -2 -2 0 4 -6 0 0 -12 

perceptron #1739: -1 3 1 1 -3 -1 1 1 -1 -3 1 -1 -3 3 -1 -9 

perceptron #1740: 2 2 0 -2 2 -2 0 2 0 0 -2 0 -4 0 0 -10 

perceptron #1741: 4 0 0 0 -2 0 0 -2 -2 0 4 0 2 0 0 -8 

perceptron #1742: -4 -4 0 0 0 -2 2 2 -2 2 -2 0 0 -2 0 -10 

perceptron #1743: 0 0 0 0 0 0 0 2 -6 -2 0 -2 0 2 0 -8 

perceptron #1744: 1 -3 1 -1 -1 1 -1 -1 -3 1 3 -1 1 -1 -3 -7 

perceptron #1745: 0 0 2 2 2 2 2 0 0 2 2 -2 2 0 2 -10 

perceptron #1746: 3 -3 -1 -1 -1 1 -1 -1 -1 -3 1 -1 -1 1 3 -9 

perceptron #1747: 0 4 0 0 2 0 2 2 0 -2 0 0 0 2 0 -8 

perceptron #1748: 0 -2 2 0 -2 -2 2 0 -2 4 0 0 0 -2 -2 -10 

perceptron #1749: -1 -1 1 1 1 -1 1 1 1 1 -1 -1 -1 1 -1 -7 

perceptron #1750: -1 -1 1 -1 -3 1 1 1 1 1 1 -1 -1 -1 1 -9 

perceptron #1751: 1 -1 1 -1 -1 -3 1 3 1 1 -3 -3 -1 1 1 -11 

perceptron #1752: -4 -2 -2 -2 2 0 0 0 -2 -2 -2 0 -2 0 0 -8 

perceptron #1753: -5 1 1 3 1 -1 -1 3 -3 1 -1 3 1 -1 1 -11 

perceptron #1754: -1 1 3 1 1 1 -1 3 -1 1 -1 1 -1 -1 3 -9 

perceptron #1755: -2 2 2 -2 2 0 -2 4 0 2 0 -2 0 2 -2 -12 

perceptron #1756: 1 1 1 1 1 1 3 -1 -1 -1 -1 1 -1 -1 -1 -11 

perceptron #1757: 2 0 0 0 0 -2 0 0 0 0 0 2 4 0 0 -10 

perceptron #1758: -1 -3 1 -1 -1 1 3 1 -3 -1 -1 1 -1 1 -1 -11 

perceptron #1759: -2 0 0 -2 2 0 2 0 -4 -2 2 0 -2 2 2 -10 

perceptron #1760: 3 1 1 -1 1 1 1 -1 1 3 -1 1 -1 1 1 -11 

perceptron #1761: -2 2 2 2 -2 -2 0 0 -2 0 0 2 0 0 2 -8 

perceptron #1762: -2 0 -2 0 -2 -2 -2 0 -2 0 2 2 0 -2 -2 -8 

perceptron #1763: -1 -1 -1 -1 1 1 -1 1 -1 -1 -1 -1 1 -1 1 -9 

perceptron #1764: 1 3 1 -1 -1 -1 -1 1 -1 1 -1 -1 -3 -1 -1 -11 

perceptron #1765: -2 0 -2 0 0 -4 0 0 0 -2 -2 2 -2 0 -2 -12 

perceptron #1766: 3 -1 3 1 3 1 -1 1 -1 -3 1 -1 -1 1 -1 -9 

perceptron #1767: -1 1 -1 -1 -3 1 1 3 -1 1 -1 -1 -1 -1 -1 -11 

perceptron #1768: -1 1 -1 1 -3 1 -1 -1 1 -3 1 -1 1 -3 1 -9 

perceptron #1769: -1 1 3 -1 -1 1 1 3 1 -1 -1 -1 1 -3 3 -7 

perceptron #1770: -3 1 1 1 1 3 -1 1 -1 -1 1 1 1 -3 -1 -9 

perceptron #1771: 0 -4 2 -2 4 0 -2 0 -2 0 -2 4 -2 0 0 -8 

perceptron #1772: 3 -1 5 1 1 1 -1 -3 -3 1 -1 -1 -3 1 1 -11 

perceptron #1773: -5 5 -1 1 1 3 3 3 1 -1 1 1 -1 1 3 -9 

perceptron #1774: -1 1 1 1 3 1 -1 5 -1 -1 -1 -1 -1 -3 -1 -11 

perceptron #1775: 1 -3 1 3 -3 -3 -1 1 -1 -1 1 3 1 -1 -1 -11 

perceptron #1776: 1 -1 -1 1 -1 1 1 3 -1 1 -1 1 -1 1 1 -11 

perceptron #1777: -2 -2 2 2 0 2 2 2 0 0 -2 4 0 0 -2 -10 

perceptron #1778: 4 -2 0 0 0 2 2 2 2 -2 0 0 2 0 -2 -8 

perceptron #1779: 0 0 0 0 0 2 -2 2 -2 0 0 2 0 2 2 -8 

perceptron #1780: -2 -4 0 0 2 0 2 0 0 0 0 0 -4 0 0 -4 

perceptron #1781: -3 1 3 3 3 -1 -1 1 1 -1 1 1 1 1 -1 -11 

perceptron #1782: -1 1 -1 1 1 3 -1 3 -1 -3 1 3 -1 3 -1 -11 

perceptron #1783: -2 -2 2 -2 0 -4 2 4 -2 0 -2 0 2 0 -2 -12 

perceptron #1784: 3 -3 1 -1 1 1 1 1 -1 -3 -3 1 1 1 1 -11 

perceptron #1785: 0 0 -2 0 -2 0 0 2 0 0 2 2 0 0 0 -10 

perceptron #1786: 2 -2 4 0 2 4 -2 2 2 0 2 2 0 2 2 -8 

perceptron #1787: 1 -1 1 1 1 5 1 -3 1 -1 -3 1 -3 3 -1 -9 

perceptron #1788: -1 -1 1 1 1 -3 3 -3 1 5 -3 3 1 5 -1 -9 

perceptron #1789: -1 -1 -1 1 -1 -1 1 1 1 1 -3 -1 -3 5 -1 -11 

perceptron #1790: -2 2 0 -2 0 2 0 -2 0 -2 -2 0 0 0 2 -10 

perceptron #1791: 1 -1 -3 -1 -1 -1 1 1 -1 -3 -1 1 1 3 1 -9 

perceptron #1792: 1 -1 -1 1 -1 -1 1 -3 1 -1 -1 1 1 -1 -1 -7 

perceptron #1793: -2 0 -4 0 0 -2 2 0 2 0 -2 4 -2 0 -2 -8 

perceptron #1794: -2 -2 2 2 0 -2 0 -2 -2 -2 0 2 2 0 2 -8 

perceptron #1795: 2 -2 2 2 4 0 2 -2 0 0 -4 0 2 2 0 -10 

perceptron #1796: 1 1 1 3 1 1 1 -1 -1 1 -1 1 -1 3 3 -9 

perceptron #1797: 0 -2 0 0 -2 -2 2 -2 0 2 -2 0 0 -2 0 -10 

perceptron #1798: -2 0 0 -2 -2 -2 2 0 0 -2 0 2 0 -2 0 -12 

perceptron #1799: -2 0 -4 0 2 0 0 0 2 2 -4 0 2 0 0 -8 

perceptron #1800: -2 0 0 -2 2 -2 4 0 0 0 0 2 -2 2 0 -8 

perceptron #1801: -2 0 0 -2 -2 2 0 0 -2 -2 2 -2 0 0 0 -10 

perceptron #1802: 0 2 -2 -2 0 0 -2 2 0 2 -2 2 -2 -2 0 -12 

perceptron #1803: 0 -2 -2 -2 -2 4 -2 -2 -2 0 0 2 0 0 -2 -8 

perceptron #1804: 0 -2 -2 0 -6 -4 -2 0 2 -2 0 0 0 -2 0 -6 

perceptron #1805: -2 -4 -2 -2 0 2 4 0 0 2 0 -2 0 -2 2 -10 

perceptron #1806: -1 -3 -1 1 1 3 -1 1 1 1 -1 5 -1 -3 1 -9 

perceptron #1807: 0 0 0 2 2 2 2 -2 2 -2 0 -4 2 2 0 -10 

perceptron #1808: -3 3 1 1 1 1 1 1 1 -1 1 3 5 1 -5 -9 

perceptron #1809: -1 1 1 -1 -1 1 1 -1 1 -3 -1 1 1 -3 3 -11 

perceptron #1810: -2 2 0 2 2 0 -2 -4 2 0 0 2 2 0 0 -8 

perceptron #1811: -2 -2 2 2 2 2 0 0 -2 2 -2 0 2 -4 0 -10 

perceptron #1812: -2 -2 0 0 2 0 -2 -2 0 2 0 4 0 2 0 -10 

perceptron #1813: -4 -2 -2 2 0 0 2 0 -2 0 0 0 2 0 4 -12 

perceptron #1814: -4 0 -2 0 -4 0 2 -2 2 0 -2 0 2 -2 0 -10 

perceptron #1815: -3 1 3 1 5 1 1 -1 3 -1 -1 1 1 -1 1 -11 

perceptron #1816: -4 2 0 2 4 0 2 0 2 2 -2 2 0 -2 0 -8 

perceptron #1817: -3 1 -1 1 -1 -3 -1 1 -1 -1 -1 -1 1 -1 1 -9 

perceptron #1818: -2 -2 -2 2 2 0 2 0 2 0 0 0 2 -2 0 -10 

perceptron #1819: -3 1 1 1 1 1 1 -1 1 -3 -1 3 3 -3 3 -9 

perceptron #1820: 2 0 0 0 0 -2 2 0 -2 4 0 0 -2 0 -2 -10 

perceptron #1821: 2 2 0 0 2 0 0 0 0 0 2 2 2 0 -2 -8 

perceptron #1822: -1 -1 -3 3 3 1 3 3 -1 1 -1 1 -1 -1 -1 -9 

perceptron #1823: 0 2 -2 0 2 0 2 -2 -2 -2 -2 0 4 -2 2 -8 

perceptron #1824: -1 1 1 1 1 -3 1 1 -1 -1 1 -1 -1 1 3 -7 

perceptron #1825: -1 1 -3 1 1 3 -1 -1 1 1 -1 -1 1 1 1 -11 

perceptron #1826: -3 1 1 -1 1 1 -1 -1 -1 1 -1 1 1 1 5 -9 

perceptron #1827: 2 0 0 0 4 -2 2 0 2 0 0 -2 0 0 2 -12 

perceptron #1828: -2 -4 0 0 2 -2 -2 2 2 -2 -4 2 2 -2 -2 -10 

perceptron #1829: -2 -2 0 0 0 -2 0 0 2 2 0 0 2 0 -2 -10 

perceptron #1830: -1 -3 -3 1 -1 -1 3 3 -1 -1 -3 -1 -1 -1 1 -9 

perceptron #1831: 0 2 -4 0 2 0 -2 2 2 -4 -2 0 2 0 0 -8 

perceptron #1832: 2 0 0 0 0 0 4 0 0 0 -2 2 0 0 0 -8 

perceptron #1833: 0 0 2 0 0 0 2 2 0 0 0 0 0 -2 2 -10 

perceptron #1834: 1 -3 1 -3 -3 -1 1 -1 1 1 -3 1 1 1 1 -11 

perceptron #1835: 1 -3 1 -3 -1 1 1 1 -1 -3 1 1 -1 -1 1 -9 

perceptron #1836: 0 2 0 0 0 2 -2 -2 0 -4 -2 0 2 -2 2 -10 

perceptron #1837: -1 1 -3 1 -1 1 -1 1 1 1 3 1 1 1 -1 -7 

perceptron #1838: -3 -1 -1 -3 1 3 -1 1 3 3 3 -1 1 1 3 -9 

perceptron #1839: -2 0 2 2 0 0 4 0 -4 0 0 2 0 2 0 -10 

perceptron #1840: -2 0 0 0 0 2 0 -2 0 -2 0 2 0 -4 0 -8 

perceptron #1841: -1 -1 1 1 3 1 3 -5 1 -3 1 1 1 -1 3 -9 

perceptron #1842: -2 -2 2 0 2 -2 -2 -2 0 -4 -2 0 0 -2 2 -8 

perceptron #1843: -2 -2 0 0 2 2 0 0 -2 -2 0 2 2 -2 0 -10 

perceptron #1844: 0 0 2 2 4 0 2 -2 -2 -4 0 0 2 2 2 -10 

perceptron #1845: 0 -2 0 0 0 0 0 0 2 0 0 0 -2 0 -4 -10 

perceptron #1846: 0 0 0 -2 0 0 -2 -2 0 0 2 2 2 0 0 -12 

perceptron #1847: -1 -1 1 3 1 -1 1 -1 1 1 -1 3 5 -3 3 -9 

perceptron #1848: 1 1 -1 1 -1 -1 1 5 1 -1 -1 -1 1 -5 1 -7 

perceptron #1849: 0 -2 4 4 2 0 0 0 -2 -4 -2 2 0 0 0 -8 

perceptron #1850: -1 1 -3 1 -1 -1 1 3 -3 1 -1 1 1 1 -1 -11 

perceptron #1851: 0 0 0 2 0 -2 0 -4 -2 0 0 0 2 0 0 -8 

perceptron #1852: -2 0 0 2 0 -2 0 -2 -2 -2 -2 0 2 2 0 -12 

perceptron #1853: -3 1 1 1 1 1 -1 -1 -1 1 1 -1 -5 -1 1 -9 

perceptron #1854: 1 1 -3 1 -1 -1 -1 -1 -1 1 1 1 -3 1 1 -9 

perceptron #1855: -2 0 -2 0 -2 -2 0 -2 4 2 -2 2 2 0 0 -8 

perceptron #1856: -1 -1 1 1 -1 -1 -1 3 -1 1 -3 3 -1 1 -3 -9 

perceptron #1857: 0 0 0 2 -2 -2 0 -2 0 2 0 0 0 0 0 -10 

perceptron #1858: 1 -1 -1 1 1 1 3 3 -1 1 -1 1 -1 3 -1 -9 

perceptron #1859: 1 1 1 1 1 -1 1 -1 -1 -1 1 3 1 1 1 -9 

perceptron #1860: -1 -1 3 -1 3 -3 1 -3 1 -1 1 -1 1 -1 3 -7 

perceptron #1861: 0 -2 0 0 0 0 2 0 2 0 -2 -2 2 2 0 -10 

perceptron #1862: 0 0 -2 0 -2 -2 0 2 2 -2 -2 2 4 0 2 -10 

perceptron #1863: 0 2 2 0 -2 0 0 0 0 0 4 0 0 0 -2 -6 

perceptron #1864: -1 -1 -1 -1 -3 -1 -1 3 -1 -1 -3 -1 -1 1 -1 -13 

perceptron #1865: 1 -1 1 1 1 -1 1 -1 1 1 -1 1 1 -1 -1 -11 

perceptron #1866: -3 -1 1 -1 1 -1 -1 1 -1 -3 -3 -1 -1 -3 -1 -11 

perceptron #1867: -2 0 0 2 2 -2 0 -4 0 0 0 0 2 0 0 -12 

perceptron #1868: -2 0 2 2 2 0 2 0 -2 -2 0 0 2 0 -4 -12 

perceptron #1869: 1 -1 1 -1 1 1 -1 1 3 1 -1 1 -1 -1 -1 -9 

perceptron #1870: -3 1 -1 1 1 -1 -1 1 -1 -1 -1 -1 -1 -1 -1 -11 

perceptron #1871: 1 1 -1 1 -3 -3 1 1 -3 -1 -1 3 -3 1 1 -11 

perceptron #1872: -4 0 2 0 0 0 0 0 0 2 2 0 0 -2 0 -12 

perceptron #1873: -2 0 2 2 2 2 -2 0 -2 4 0 6 0 0 2 -10 

perceptron #1874: -3 -1 1 -3 3 3 1 3 1 -5 3 1 -1 1 1 -7 

perceptron #1875: 1 1 -1 1 1 -3 -1 -1 3 1 1 -3 -1 1 1 -7 

perceptron #1876: 1 1 -3 3 3 -1 -1 -1 1 1 5 1 -1 3 -3 -7 

perceptron #1877: 1 1 1 1 -1 -1 1 -1 -1 -3 3 1 3 -1 -3 -7 

perceptron #1878: 0 -2 -2 2 2 0 0 2 0 -2 4 0 -2 0 0 -10 

perceptron #1879: 1 -3 1 -1 1 1 -1 1 -1 3 1 -1 1 1 -3 -11 

perceptron #1880: 1 -3 1 -1 -1 1 -1 -3 1 -1 -1 -1 -1 -1 1 -11 

perceptron #1881: 2 2 4 -2 0 0 0 0 2 0 -4 0 0 -2 2 -10 

perceptron #1882: 1 -1 -1 1 1 3 -3 3 -1 -1 -3 -3 1 -1 -1 -11 

perceptron #1883: 0 -2 2 -2 0 -4 0 -2 0 -2 -4 0 0 -2 2 -8 

perceptron #1884: -1 1 1 -1 1 1 1 1 -1 -3 1 1 1 1 1 -9 

perceptron #1885: -2 0 2 0 4 0 0 0 -2 0 0 -2 -2 -6 2 -8 

perceptron #1886: -2 -2 0 0 2 2 0 -2 -2 -4 -2 2 -2 2 -2 -10 

perceptron #1887: 1 3 1 -1 -1 -1 1 3 -1 1 -3 -1 -3 -1 -3 -9 

perceptron #1888: 3 -1 -1 -1 -3 -1 1 1 -1 -1 1 -1 -1 -1 -3 -9 

perceptron #1889: 0 2 -2 0 -2 2 0 0 0 -2 2 0 0 4 0 -10 

perceptron #1890: -2 0 -2 2 0 0 0 2 -2 0 2 -2 2 0 2 -10 

perceptron #1891: -1 -1 3 3 -1 1 -1 3 -1 -1 1 1 -3 3 -1 -9 

perceptron #1892: -1 -1 1 1 -1 -1 1 -1 -1 -1 -1 -3 -1 3 1 -9 

perceptron #1893: 3 1 3 -5 -3 -1 1 1 3 3 1 -1 1 1 3 -9 

perceptron #1894: -1 1 1 3 -1 1 -3 1 -1 1 -1 -3 -1 1 1 -9 

perceptron #1895: 0 2 2 0 2 2 4 2 -4 -2 2 -4 -2 2 2 -12 

perceptron #1896: 1 -1 1 -1 1 1 1 1 -3 -1 1 -1 -1 -1 -1 -11 

perceptron #1897: 2 -2 0 0 4 4 -2 2 -6 0 -2 2 -2 0 2 -10 

perceptron #1898: 1 -1 -3 -1 -1 -1 -1 3 -1 -1 -1 3 -5 -1 1 -9 

perceptron #1899: -4 -2 4 -2 0 0 -4 -2 -2 2 0 0 -4 0 2 -6 

perceptron #1900: 1 1 -1 1 1 3 -1 1 -1 1 -1 1 1 1 -1 -9 

perceptron #1901: 1 1 1 1 -1 3 -1 1 -1 1 -1 1 1 1 1 -11 

perceptron #1902: 0 0 2 2 2 0 0 0 -2 4 -2 0 0 2 0 -10 

perceptron #1903: -1 1 1 3 -1 1 -1 -1 -3 1 1 3 -3 3 1 -9 

perceptron #1904: -3 -5 1 3 3 1 3 -1 1 1 1 1 1 1 1 -9 

perceptron #1905: -1 -7 -1 1 1 1 -1 1 -5 1 -3 1 -1 -1 -1 -11 

perceptron #1906: 0 0 0 0 0 0 2 -2 -2 -2 0 -2 0 -2 -2 -10 

perceptron #1907: 0 -2 2 0 0 0 2 -2 0 -2 -2 0 -2 0 -2 -8 

perceptron #1908: 2 0 2 -2 0 0 0 0 -2 0 -2 0 0 0 0 -10 

perceptron #1909: 2 2 0 -2 -2 0 0 2 0 -2 2 0 -2 -4 -2 -10 

perceptron #1910: 1 -1 -1 -1 1 -1 -1 1 1 1 -1 1 1 -3 1 -11 

perceptron #1911: -2 0 -2 0 0 -2 -2 0 2 0 2 -4 0 2 2 -8 

perceptron #1912: 0 2 -2 2 0 0 2 2 0 0 0 -2 -2 2 -2 -10 

perceptron #1913: -1 -3 1 3 1 -1 -3 -1 -3 -1 1 -1 -1 -5 3 -9 

perceptron #1914: -1 -1 -1 1 -1 -1 3 1 -3 1 1 -3 -1 -1 1 -9 

perceptron #1915: 2 0 2 2 0 -2 0 2 2 4 -2 0 -2 -2 0 -4 

perceptron #1916: -1 1 3 1 3 1 -1 -1 -1 1 1 -1 -1 -1 1 -9 

perceptron #1917: -2 2 0 2 2 2 -2 0 0 0 0 0 0 4 -2 -10 

perceptron #1918: 0 2 2 4 -2 0 -2 -2 0 2 2 2 2 2 -2 -10 

perceptron #1919: -1 -1 1 -1 -1 -1 1 1 -1 -1 -3 1 1 -1 -1 -11 

perceptron #1920: -2 0 0 0 0 0 0 2 -2 2 2 4 2 4 -2 -10 

perceptron #1921: -1 1 1 -3 -3 -1 1 -3 -1 -1 -3 1 3 -1 1 -9 

perceptron #1922: -2 -2 0 0 -4 2 2 0 -2 0 0 0 -4 -2 0 -12 

perceptron #1923: -1 1 1 -1 1 1 1 -1 -1 1 -1 -1 -3 -3 1 -11 

perceptron #1924: 1 -1 1 1 -1 -1 -1 1 -1 -1 1 -3 1 1 1 -9 

perceptron #1925: -2 -2 2 2 2 -2 0 2 0 0 2 0 0 -4 0 -10 

perceptron #1926: -2 -2 0 2 -2 0 0 2 -2 0 2 -2 -2 0 -2 -10 

perceptron #1927: 1 1 1 1 1 -1 3 3 1 3 1 3 1 1 -5 -11 

perceptron #1928: 0 0 -2 0 0 2 -2 0 -2 0 0 0 -2 -2 -2 -10 

perceptron #1929: -2 0 0 0 0 0 0 2 0 -4 2 0 0 0 0 -6 

perceptron #1930: -2 -2 2 0 2 -2 -2 -2 -2 -2 0 0 -2 -2 -2 -6 

perceptron #1931: -2 2 0 0 2 2 0 0 0 -2 2 0 0 -2 2 -8 

perceptron #1932: -3 1 1 -1 -3 1 1 -3 5 -1 1 1 1 -1 1 -9 

perceptron #1933: -3 -1 1 1 1 1 1 -1 -1 -1 -1 1 1 1 -1 -11 

perceptron #1934: 0 2 0 0 -2 0 0 0 -2 0 -2 0 -2 0 -4 -10 

perceptron #1935: 0 0 -2 2 2 0 -2 0 0 2 0 0 2 0 0 -12 

perceptron #1936: -1 3 1 3 -1 -3 -3 1 -3 -1 1 1 -1 1 1 -13 

perceptron #1937: -3 3 -1 1 -1 -1 -3 1 -3 1 1 1 1 1 -1 -11 

perceptron #1938: 1 1 1 1 1 -1 1 1 1 -1 1 1 3 -1 1 -13 

perceptron #1939: -1 -3 1 3 -1 -1 -1 1 -3 1 5 1 -1 1 1 -9 

perceptron #1940: 1 1 1 -1 1 1 -1 3 -1 3 -3 -1 -1 1 3 -11 

perceptron #1941: 2 -2 0 0 0 -2 0 2 -2 -2 -2 0 2 0 2 -8 

perceptron #1942: 0 -2 2 0 0 0 2 2 0 -2 2 -2 0 0 -2 -10 

perceptron #1943: 1 1 -1 -1 -1 -1 1 -3 1 -1 1 3 -3 1 1 -9 

perceptron #1944: -1 -1 3 -1 -1 -1 1 1 -3 -1 -1 -1 -1 1 1 -9 

perceptron #1945: 1 1 -1 1 1 3 -1 -1 -1 -1 -1 -1 1 -3 3 -9 

perceptron #1946: -1 -1 1 -1 -1 -1 1 -1 -1 -3 1 -1 1 1 1 -11 

perceptron #1947: -2 0 2 -2 -2 0 -2 0 0 2 -2 0 0 0 0 -10 

perceptron #1948: 1 -1 -1 -1 1 1 3 -1 -1 1 -1 1 -1 1 1 -11 

perceptron #1949: 1 1 3 -1 -1 -1 -1 -1 1 -3 -1 1 1 -1 1 -13 

perceptron #1950: -1 -1 1 -1 -1 1 -1 1 -3 -1 1 1 -1 -1 1 -11 

perceptron #1951: 1 -1 1 1 3 -1 -1 -1 -1 -3 -1 1 -1 -1 -1 -11 

perceptron #1952: 1 -1 -3 1 -1 1 1 1 1 -1 -1 -1 -1 1 1 -11 

perceptron #1953: -2 2 0 0 0 -2 -4 2 -2 -2 2 0 0 0 2 -8 

perceptron #1954: -1 -1 -3 -1 -1 -3 1 1 1 -1 -1 1 1 -1 1 -9 

perceptron #1955: 4 -2 -2 2 -2 -2 2 -2 4 -2 0 0 4 0 0 -10 

perceptron #1956: -1 -1 3 -1 -1 1 1 1 -1 -1 1 1 -3 1 3 -9 

perceptron #1957: 1 1 -1 -1 -1 1 -1 1 1 1 1 -1 -1 1 -1 -11 

perceptron #1958: -1 1 3 1 1 -1 1 3 1 1 -3 -1 1 -1 1 -9 

perceptron #1959: 0 -2 0 -2 0 4 0 2 2 0 -2 -2 2 0 0 -8 

perceptron #1960: 0 -4 0 0 -4 2 2 2 -2 -2 -2 -2 2 -2 4 -10 

perceptron #1961: 0 -2 0 4 -2 0 -2 0 -2 0 -2 -2 0 0 2 -8 

perceptron #1962: -1 3 -1 -1 -1 1 -1 -1 -1 -1 1 1 -1 1 1 -9 

perceptron #1963: -2 -2 2 0 -2 0 -2 0 0 0 0 0 0 0 2 -10 

perceptron #1964: -1 1 1 -1 -1 -1 -1 -1 1 -3 1 -1 1 3 1 -9 

perceptron #1965: -1 -1 -3 1 1 -1 5 -1 -1 -1 -1 1 -1 -1 3 -11 

perceptron #1966: -3 1 -1 1 3 -1 1 -3 1 -1 3 1 1 1 -1 -9 

perceptron #1967: -1 1 1 -1 1 -1 1 -1 -1 -1 -1 -1 -1 1 -1 -13 

perceptron #1968: -1 3 -1 3 1 -3 -3 1 -1 3 1 1 -1 1 1 -11 

perceptron #1969: 1 -3 3 1 -1 -1 -3 1 -1 1 -3 1 1 1 1 -11 

perceptron #1970: -1 -1 1 1 1 1 1 -1 1 1 1 3 1 1 1 -11 

perceptron #1971: -1 -1 1 -1 -1 -1 -3 1 -1 -3 1 -1 -1 -1 1 -9 

perceptron #1972: -2 2 0 0 2 -2 0 0 0 -2 2 -2 0 0 0 -10 

perceptron #1973: 0 0 2 0 0 -2 -2 -4 -4 -2 -2 -2 -4 2 2 -8 

perceptron #1974: -4 0 0 0 0 0 0 2 0 0 0 0 -4 -2 0 -10 

perceptron #1975: -1 1 -1 1 -1 1 1 1 -1 -1 -1 1 1 -1 1 -11 

perceptron #1976: 0 2 2 -2 0 2 -2 2 -2 0 2 -2 -4 0 2 -8 

perceptron #1977: -3 -1 -3 3 1 -3 -1 1 -1 1 3 -1 -1 1 -1 -11 

perceptron #1978: -1 -3 -3 -1 -1 -1 1 -1 -1 -1 -1 1 -1 1 -1 -9 

perceptron #1979: -3 -1 -5 1 -1 3 -1 -3 1 -1 -1 1 -1 1 1 -9 

perceptron #1980: 0 2 2 2 -2 -2 -2 -2 -2 0 -2 -2 0 -2 0 -8 

perceptron #1981: 1 -1 1 -1 1 -3 -1 1 -1 3 1 -1 1 1 1 -9 

perceptron #1982: -1 -3 3 -1 -1 3 1 -1 -1 -1 1 -1 1 -1 1 -9 

perceptron #1983: -1 1 1 3 1 5 -1 -1 -3 1 -3 1 -1 3 1 -11 

perceptron #1984: 0 -2 0 -2 4 0 2 2 2 0 2 0 -2 0 -2 -10 

perceptron #1985: 0 0 2 2 0 0 0 -2 -2 0 -2 2 2 0 0 -12 

perceptron #1986: 0 2 -2 0 -2 0 0 -2 -2 2 -2 0 -4 0 -2 -12 

perceptron #1987: -2 -2 2 -2 0 -2 0 0 2 2 -2 0 -2 2 2 -10 

perceptron #1988: 0 0 -2 -2 2 2 -2 -2 -2 2 -2 2 2 0 -4 -8 

perceptron #1989: 1 -3 -1 3 1 1 -1 -1 -1 1 -3 1 1 -1 1 -11 

perceptron #1990: -2 2 0 -2 2 2 0 0 0 0 0 -2 -2 2 2 -10 

perceptron #1991: 2 0 2 0 0 0 2 0 0 -4 -2 2 -4 0 2 -12 

perceptron #1992: 0 -2 0 2 4 0 0 -2 0 -2 0 -2 0 0 0 -12 

perceptron #1993: -2 2 -4 2 2 0 2 2 0 -2 2 2 -4 0 0 -8 

perceptron #1994: -2 0 2 -2 -2 -2 0 -2 0 0 2 2 0 -4 2 -8 

perceptron #1995: -1 -1 -1 1 3 -1 -1 -1 -3 -1 1 -1 -1 -1 1 -9 

perceptron #1996: -3 3 1 1 1 1 1 -3 -1 1 -3 1 1 -1 3 -9 

perceptron #1997: -3 -1 3 -1 1 1 1 -1 1 -1 1 -1 1 1 -1 -9 

perceptron #1998: 3 -3 -1 1 1 1 3 -3 -1 1 1 1 -1 -3 1 -9 

perceptron #1999: -2 0 0 0 0 2 0 4 0 -2 2 4 -4 0 2 -8 

perceptron #2000: -1 -1 1 1 1 -3 1 -1 -1 3 -1 1 1 1 -1 -11 

perceptron #2001: 0 -2 0 0 0 0 0 2 0 -2 -4 0 0 4 2 -8 

perceptron #2002: -1 1 -1 3 1 -1 -1 1 1 -3 -1 -1 3 1 3 -11 

perceptron #2003: -3 1 1 3 -1 1 -1 1 -1 -1 1 -1 1 1 1 -11 

perceptron #2004: 1 1 -1 1 1 1 1 1 1 -3 3 -1 3 1 -1 -9 

perceptron #2005: -2 0 -2 0 0 0 0 -2 0 -2 -2 0 -2 -2 0 -12 

perceptron #2006: 2 2 6 0 0 0 2 -4 -4 -2 2 0 0 -2 -2 -8 

perceptron #2007: -2 0 0 0 0 0 2 2 0 0 0 0 2 0 0 -10 

perceptron #2008: 1 -1 1 1 -1 -1 3 3 5 -3 -3 1 -3 3 3 -9 

perceptron #2009: -2 0 0 0 0 -2 0 -2 0 0 -2 -2 0 0 -2 -10 

perceptron #2010: -2 0 -2 0 2 0 -2 0 0 -2 0 -2 -2 2 0 -12 

perceptron #2011: 3 -1 -1 -1 -1 -1 1 1 -1 -3 -1 -1 -1 3 -1 -9 

perceptron #2012: 2 0 0 0 0 0 0 2 0 2 0 0 -2 -2 2 -10 

perceptron #2013: 0 -2 -2 -2 0 0 2 0 2 0 0 0 2 2 2 -12 

perceptron #2014: -1 3 3 -1 1 -1 1 3 -3 3 -1 1 1 1 -1 -9 

perceptron #2015: -1 1 1 1 -5 -1 -1 5 -3 -1 -1 1 1 -1 1 -11 

perceptron #2016: -2 0 6 0 0 0 -2 0 2 -4 0 -4 0 0 -2 -10 

perceptron #2017: 0 2 0 2 2 -2 0 0 0 0 0 -2 0 2 0 -8 

perceptron #2018: 1 -3 1 -1 1 -1 1 -1 1 -1 -1 -1 -1 -1 -1 -11 

perceptron #2019: 1 -1 1 1 -1 1 1 1 3 1 1 -3 -1 1 -1 -9 

perceptron #2020: 0 2 2 -2 0 -2 2 0 2 0 2 0 0 0 -2 -10 

perceptron #2021: 3 1 -3 1 1 -1 -1 1 -1 1 -1 -1 1 1 1 -11 

perceptron #2022: -1 -1 1 -1 -3 3 1 -1 3 3 -1 -1 -1 -1 -1 -13 

perceptron #2023: -2 4 2 -2 0 0 0 0 0 4 -4 2 0 -2 2 -6 

perceptron #2024: -2 -4 2 2 0 -2 -2 -2 0 -2 -4 0 -2 2 2 -10 

perceptron #2025: -2 0 0 0 0 -2 0 -2 0 -4 0 -4 -2 0 0 -8 

perceptron #2026: -1 1 -1 1 1 -1 -1 -1 -1 1 -3 -1 1 -1 1 -9 

perceptron #2027: -1 -1 1 -1 -1 1 -1 -1 -1 -3 -1 3 -1 -1 -1 -11 

perceptron #2028: 1 -1 3 -1 1 1 1 -3 -1 -1 3 -1 -1 1 -1 -11 

perceptron #2029: -3 1 -3 1 1 1 -1 3 -3 -3 1 -1 -1 -1 -1 -9 

perceptron #2030: 1 1 1 -1 -1 1 -3 3 1 -1 1 -1 -1 1 -1 -11 

perceptron #2031: 4 -2 -2 -2 0 0 -4 -2 2 -2 0 0 0 2 0 -8 

perceptron #2032: 1 1 -1 1 -1 3 -3 1 1 -1 -1 1 1 -1 -1 -13 

perceptron #2033: -3 -1 1 1 1 -1 1 1 -1 1 1 1 1 -1 1 -11 

perceptron #2034: -1 -1 1 1 -1 1 1 -1 -3 1 1 3 1 1 1 -7 

perceptron #2035: 0 0 0 -2 -2 2 0 -2 -2 0 0 2 0 -2 2 -12 

perceptron #2036: 0 -2 -2 0 0 2 2 0 -4 0 -2 -2 -2 2 0 -10 

perceptron #2037: 0 2 0 -2 0 2 4 0 0 0 0 4 2 0 0 -10 

perceptron #2038: 1 1 -1 -1 1 1 1 1 1 1 1 1 -1 1 1 -11 

perceptron #2039: -4 -4 2 0 2 -2 2 -2 0 2 -2 2 0 0 0 -8 

perceptron #2040: 0 -4 -2 -2 -2 2 2 2 -2 -2 0 0 2 -2 0 -12 

perceptron #2041: -2 2 6 0 0 2 0 -2 0 -2 -4 0 0 0 0 -8 

perceptron #2042: 0 2 4 2 0 2 -2 -2 -4 -4 2 4 0 -2 -2 -8 

perceptron #2043: -1 1 1 1 1 -1 -1 1 1 1 -3 -3 1 -3 1 -9 

perceptron #2044: -2 2 0 -2 0 0 0 0 0 -2 0 -2 -2 -4 0 -12 

perceptron #2045: -1 1 1 1 1 -3 -1 1 -1 -1 -3 1 -1 1 1 -13 

perceptron #2046: -1 1 -1 1 -1 -1 -3 1 1 1 -1 1 -1 1 1 -13 

perceptron #2047: -2 0 0 0 -2 0 -2 4 -4 0 2 0 -2 2 0 -12 


DRAM Statistics
 CHANNEL 0
 RQ ROW_BUFFER_HIT:      65256  ROW_BUFFER_MISS:     197170
 DBUS_CONGESTED:      48435
 WQ ROW_BUFFER_HIT:       4894  ROW_BUFFER_MISS:     164504  FULL:          0

 AVG_CONGESTED_CYCLE: 6

CPU 0 Branch Prediction Accuracy: 90.7181% MPKI: 13.7272 Average ROB Occupancy at Mispredict: 32.379

Branch types
NOT_BRANCH: 852108097 85.2108%
BRANCH_DIRECT_JUMP: 8658948 0.865895%
BRANCH_INDIRECT: 862270 0.086227%
BRANCH_CONDITIONAL: 98627220 9.86272%
BRANCH_DIRECT_CALL: 19871562 1.98716%
BRANCH_INDIRECT_CALL: 0 0%
BRANCH_RETURN: 19871559 1.98716%
BRANCH_OTHER: 0 0%

