
*** ChampSim Multicore Out-of-Order Simulator ***

Warmup Instructions: 100000000
Simulation Instructions: 1000000000
Number of CPUs: 1
LLC sets: 2048
LLC ways: 16
Off-chip DRAM Size: 4096 MB Channels: 1 Width: 64-bit Data Rate: 3200 MT/s

CPU 0 runs /scratch/user/kevin.weston/dpc3-traces/638.champsimtrace.xz
CPU 0 Bimodal branch predictor
Initialize RRPV
Initialize PRRIP state
Heartbeat CPU 0 instructions: 10000001 cycles: 2862043 heartbeat IPC: 3.49401 cumulative IPC: 3.49401 (Simulation time: 0 hr 0 min 15 sec) 
Heartbeat CPU 0 instructions: 20000002 cycles: 5723727 heartbeat IPC: 3.49445 cumulative IPC: 3.49423 (Simulation time: 0 hr 0 min 30 sec) 
Heartbeat CPU 0 instructions: 30000000 cycles: 8585373 heartbeat IPC: 3.49449 cumulative IPC: 3.49432 (Simulation time: 0 hr 0 min 46 sec) 
Heartbeat CPU 0 instructions: 40000001 cycles: 11447089 heartbeat IPC: 3.49441 cumulative IPC: 3.49434 (Simulation time: 0 hr 1 min 1 sec) 
Heartbeat CPU 0 instructions: 50000000 cycles: 14308837 heartbeat IPC: 3.49437 cumulative IPC: 3.49434 (Simulation time: 0 hr 1 min 17 sec) 
Heartbeat CPU 0 instructions: 60000000 cycles: 17170388 heartbeat IPC: 3.49461 cumulative IPC: 3.49439 (Simulation time: 0 hr 1 min 32 sec) 
Heartbeat CPU 0 instructions: 70000003 cycles: 20031920 heartbeat IPC: 3.49463 cumulative IPC: 3.49442 (Simulation time: 0 hr 1 min 48 sec) 
Heartbeat CPU 0 instructions: 80000001 cycles: 22893521 heartbeat IPC: 3.49455 cumulative IPC: 3.49444 (Simulation time: 0 hr 2 min 3 sec) 
Heartbeat CPU 0 instructions: 90000001 cycles: 25755113 heartbeat IPC: 3.49456 cumulative IPC: 3.49445 (Simulation time: 0 hr 2 min 19 sec) 
Heartbeat CPU 0 instructions: 100000002 cycles: 28616733 heartbeat IPC: 3.49452 cumulative IPC: 3.49446 (Simulation time: 0 hr 2 min 34 sec) 

Warmup complete CPU 0 instructions: 100000002 cycles: 28616733 (Simulation time: 0 hr 2 min 34 sec) 

Heartbeat CPU 0 instructions: 110000000 cycles: 32949108 heartbeat IPC: 2.3082 cumulative IPC: 2.3082 (Simulation time: 0 hr 2 min 48 sec) 
Heartbeat CPU 0 instructions: 120000000 cycles: 37290250 heartbeat IPC: 2.30354 cumulative IPC: 2.30587 (Simulation time: 0 hr 3 min 1 sec) 
Heartbeat CPU 0 instructions: 130000003 cycles: 41629520 heartbeat IPC: 2.30454 cumulative IPC: 2.30542 (Simulation time: 0 hr 3 min 14 sec) 
Heartbeat CPU 0 instructions: 140000001 cycles: 45969504 heartbeat IPC: 2.30416 cumulative IPC: 2.30511 (Simulation time: 0 hr 3 min 28 sec) 
Heartbeat CPU 0 instructions: 150000000 cycles: 50309907 heartbeat IPC: 2.30393 cumulative IPC: 2.30487 (Simulation time: 0 hr 3 min 41 sec) 
Heartbeat CPU 0 instructions: 160000003 cycles: 54649800 heartbeat IPC: 2.3042 cumulative IPC: 2.30476 (Simulation time: 0 hr 3 min 55 sec) 
Heartbeat CPU 0 instructions: 170000000 cycles: 58990315 heartbeat IPC: 2.30387 cumulative IPC: 2.30463 (Simulation time: 0 hr 4 min 8 sec) 
Heartbeat CPU 0 instructions: 180000001 cycles: 63330094 heartbeat IPC: 2.30427 cumulative IPC: 2.30459 (Simulation time: 0 hr 4 min 21 sec) 
Heartbeat CPU 0 instructions: 190000002 cycles: 67669755 heartbeat IPC: 2.30433 cumulative IPC: 2.30456 (Simulation time: 0 hr 4 min 35 sec) 
Heartbeat CPU 0 instructions: 200000003 cycles: 72011046 heartbeat IPC: 2.30346 cumulative IPC: 2.30445 (Simulation time: 0 hr 4 min 48 sec) 
Heartbeat CPU 0 instructions: 210000003 cycles: 76355351 heartbeat IPC: 2.30186 cumulative IPC: 2.30421 (Simulation time: 0 hr 5 min 2 sec) 
Heartbeat CPU 0 instructions: 220000000 cycles: 80704315 heartbeat IPC: 2.2994 cumulative IPC: 2.30381 (Simulation time: 0 hr 5 min 16 sec) 
Heartbeat CPU 0 instructions: 230000002 cycles: 85058089 heartbeat IPC: 2.29686 cumulative IPC: 2.30328 (Simulation time: 0 hr 5 min 29 sec) 
Heartbeat CPU 0 instructions: 240000001 cycles: 89417589 heartbeat IPC: 2.29384 cumulative IPC: 2.3026 (Simulation time: 0 hr 5 min 43 sec) 
Heartbeat CPU 0 instructions: 250000000 cycles: 93781618 heartbeat IPC: 2.29146 cumulative IPC: 2.30185 (Simulation time: 0 hr 5 min 57 sec) 
Heartbeat CPU 0 instructions: 260000003 cycles: 98146526 heartbeat IPC: 2.291 cumulative IPC: 2.30117 (Simulation time: 0 hr 6 min 11 sec) 
Heartbeat CPU 0 instructions: 270000001 cycles: 102512885 heartbeat IPC: 2.29024 cumulative IPC: 2.30053 (Simulation time: 0 hr 6 min 24 sec) 
Heartbeat CPU 0 instructions: 280000003 cycles: 106878400 heartbeat IPC: 2.29068 cumulative IPC: 2.29998 (Simulation time: 0 hr 6 min 38 sec) 
Heartbeat CPU 0 instructions: 290000003 cycles: 111241903 heartbeat IPC: 2.29174 cumulative IPC: 2.29954 (Simulation time: 0 hr 6 min 52 sec) 
Heartbeat CPU 0 instructions: 300000002 cycles: 115604772 heartbeat IPC: 2.29207 cumulative IPC: 2.29917 (Simulation time: 0 hr 7 min 6 sec) 
Heartbeat CPU 0 instructions: 310000003 cycles: 119967746 heartbeat IPC: 2.29201 cumulative IPC: 2.29883 (Simulation time: 0 hr 7 min 20 sec) 
Heartbeat CPU 0 instructions: 320000003 cycles: 124331590 heartbeat IPC: 2.29156 cumulative IPC: 2.29849 (Simulation time: 0 hr 7 min 34 sec) 
Heartbeat CPU 0 instructions: 330000000 cycles: 128694997 heartbeat IPC: 2.29179 cumulative IPC: 2.2982 (Simulation time: 0 hr 7 min 48 sec) 
Heartbeat CPU 0 instructions: 340000002 cycles: 133058614 heartbeat IPC: 2.29168 cumulative IPC: 2.29793 (Simulation time: 0 hr 8 min 1 sec) 
Heartbeat CPU 0 instructions: 350000000 cycles: 137421111 heartbeat IPC: 2.29226 cumulative IPC: 2.2977 (Simulation time: 0 hr 8 min 15 sec) 
Heartbeat CPU 0 instructions: 360000001 cycles: 141782860 heartbeat IPC: 2.29266 cumulative IPC: 2.29751 (Simulation time: 0 hr 8 min 29 sec) 
Heartbeat CPU 0 instructions: 370000003 cycles: 146144944 heartbeat IPC: 2.29248 cumulative IPC: 2.29732 (Simulation time: 0 hr 8 min 43 sec) 
Heartbeat CPU 0 instructions: 380000001 cycles: 150508175 heartbeat IPC: 2.29188 cumulative IPC: 2.29713 (Simulation time: 0 hr 8 min 57 sec) 
Heartbeat CPU 0 instructions: 390000001 cycles: 154866924 heartbeat IPC: 2.29424 cumulative IPC: 2.29703 (Simulation time: 0 hr 9 min 11 sec) 
Heartbeat CPU 0 instructions: 400000002 cycles: 159217875 heartbeat IPC: 2.29835 cumulative IPC: 2.29707 (Simulation time: 0 hr 9 min 24 sec) 
Heartbeat CPU 0 instructions: 410000002 cycles: 163565756 heartbeat IPC: 2.29997 cumulative IPC: 2.29716 (Simulation time: 0 hr 9 min 38 sec) 
Heartbeat CPU 0 instructions: 420000001 cycles: 167911869 heartbeat IPC: 2.30091 cumulative IPC: 2.29728 (Simulation time: 0 hr 9 min 52 sec) 
Heartbeat CPU 0 instructions: 430000003 cycles: 172256833 heartbeat IPC: 2.30152 cumulative IPC: 2.29741 (Simulation time: 0 hr 10 min 5 sec) 
Heartbeat CPU 0 instructions: 440000000 cycles: 176600885 heartbeat IPC: 2.302 cumulative IPC: 2.29754 (Simulation time: 0 hr 10 min 19 sec) 
Heartbeat CPU 0 instructions: 450000000 cycles: 180942554 heartbeat IPC: 2.30326 cumulative IPC: 2.29771 (Simulation time: 0 hr 10 min 32 sec) 
Heartbeat CPU 0 instructions: 460000002 cycles: 185282436 heartbeat IPC: 2.30421 cumulative IPC: 2.29789 (Simulation time: 0 hr 10 min 46 sec) 
Heartbeat CPU 0 instructions: 470000003 cycles: 189623008 heartbeat IPC: 2.30384 cumulative IPC: 2.29805 (Simulation time: 0 hr 10 min 59 sec) 
Heartbeat CPU 0 instructions: 480000000 cycles: 193963200 heartbeat IPC: 2.30404 cumulative IPC: 2.2982 (Simulation time: 0 hr 11 min 13 sec) 
Heartbeat CPU 0 instructions: 490000001 cycles: 198305720 heartbeat IPC: 2.30281 cumulative IPC: 2.29832 (Simulation time: 0 hr 11 min 26 sec) 
Heartbeat CPU 0 instructions: 500000001 cycles: 202643594 heartbeat IPC: 2.30528 cumulative IPC: 2.2985 (Simulation time: 0 hr 11 min 40 sec) 
Heartbeat CPU 0 instructions: 510000000 cycles: 206985044 heartbeat IPC: 2.30338 cumulative IPC: 2.29861 (Simulation time: 0 hr 11 min 53 sec) 
Heartbeat CPU 0 instructions: 520000001 cycles: 211326360 heartbeat IPC: 2.30345 cumulative IPC: 2.29873 (Simulation time: 0 hr 12 min 6 sec) 
Heartbeat CPU 0 instructions: 530000003 cycles: 215668515 heartbeat IPC: 2.303 cumulative IPC: 2.29883 (Simulation time: 0 hr 12 min 20 sec) 
Heartbeat CPU 0 instructions: 540000001 cycles: 220010882 heartbeat IPC: 2.30289 cumulative IPC: 2.29892 (Simulation time: 0 hr 12 min 33 sec) 
Heartbeat CPU 0 instructions: 550000000 cycles: 224355646 heartbeat IPC: 2.30162 cumulative IPC: 2.29898 (Simulation time: 0 hr 12 min 47 sec) 
Heartbeat CPU 0 instructions: 560000002 cycles: 228696991 heartbeat IPC: 2.30343 cumulative IPC: 2.29908 (Simulation time: 0 hr 13 min 0 sec) 
Heartbeat CPU 0 instructions: 570000001 cycles: 233036003 heartbeat IPC: 2.30467 cumulative IPC: 2.2992 (Simulation time: 0 hr 13 min 13 sec) 
Heartbeat CPU 0 instructions: 580000000 cycles: 237374966 heartbeat IPC: 2.3047 cumulative IPC: 2.29931 (Simulation time: 0 hr 13 min 27 sec) 
Heartbeat CPU 0 instructions: 590000002 cycles: 241714699 heartbeat IPC: 2.30429 cumulative IPC: 2.29941 (Simulation time: 0 hr 13 min 40 sec) 
Heartbeat CPU 0 instructions: 600000003 cycles: 246054126 heartbeat IPC: 2.30445 cumulative IPC: 2.29951 (Simulation time: 0 hr 13 min 54 sec) 
Heartbeat CPU 0 instructions: 610000001 cycles: 250396556 heartbeat IPC: 2.30286 cumulative IPC: 2.29958 (Simulation time: 0 hr 14 min 8 sec) 
Heartbeat CPU 0 instructions: 620000002 cycles: 254740562 heartbeat IPC: 2.30202 cumulative IPC: 2.29962 (Simulation time: 0 hr 14 min 21 sec) 
Heartbeat CPU 0 instructions: 630000001 cycles: 259081619 heartbeat IPC: 2.30359 cumulative IPC: 2.2997 (Simulation time: 0 hr 14 min 35 sec) 
Heartbeat CPU 0 instructions: 640000003 cycles: 263425019 heartbeat IPC: 2.30234 cumulative IPC: 2.29975 (Simulation time: 0 hr 14 min 48 sec) 
Heartbeat CPU 0 instructions: 650000001 cycles: 267767281 heartbeat IPC: 2.30295 cumulative IPC: 2.29981 (Simulation time: 0 hr 15 min 2 sec) 
Heartbeat CPU 0 instructions: 660000000 cycles: 272110799 heartbeat IPC: 2.30228 cumulative IPC: 2.29985 (Simulation time: 0 hr 15 min 16 sec) 
Heartbeat CPU 0 instructions: 670000001 cycles: 276454197 heartbeat IPC: 2.30235 cumulative IPC: 2.29989 (Simulation time: 0 hr 15 min 29 sec) 
Heartbeat CPU 0 instructions: 680000002 cycles: 280796646 heartbeat IPC: 2.30285 cumulative IPC: 2.29995 (Simulation time: 0 hr 15 min 43 sec) 
Heartbeat CPU 0 instructions: 690000002 cycles: 285138539 heartbeat IPC: 2.30314 cumulative IPC: 2.3 (Simulation time: 0 hr 15 min 56 sec) 
Heartbeat CPU 0 instructions: 700000003 cycles: 289479370 heartbeat IPC: 2.30371 cumulative IPC: 2.30006 (Simulation time: 0 hr 16 min 10 sec) 
Heartbeat CPU 0 instructions: 710000000 cycles: 293820665 heartbeat IPC: 2.30346 cumulative IPC: 2.30012 (Simulation time: 0 hr 16 min 23 sec) 
Heartbeat CPU 0 instructions: 720000001 cycles: 298160729 heartbeat IPC: 2.30411 cumulative IPC: 2.30018 (Simulation time: 0 hr 16 min 37 sec) 
Heartbeat CPU 0 instructions: 730000001 cycles: 302501334 heartbeat IPC: 2.30383 cumulative IPC: 2.30024 (Simulation time: 0 hr 16 min 51 sec) 
Heartbeat CPU 0 instructions: 740000000 cycles: 306846673 heartbeat IPC: 2.30132 cumulative IPC: 2.30026 (Simulation time: 0 hr 17 min 4 sec) 
Heartbeat CPU 0 instructions: 750000001 cycles: 311194239 heartbeat IPC: 2.30014 cumulative IPC: 2.30025 (Simulation time: 0 hr 17 min 18 sec) 
Heartbeat CPU 0 instructions: 760000001 cycles: 315543800 heartbeat IPC: 2.29908 cumulative IPC: 2.30024 (Simulation time: 0 hr 17 min 32 sec) 
Heartbeat CPU 0 instructions: 770000000 cycles: 319892740 heartbeat IPC: 2.29941 cumulative IPC: 2.30022 (Simulation time: 0 hr 17 min 45 sec) 
Heartbeat CPU 0 instructions: 780000001 cycles: 324242067 heartbeat IPC: 2.29921 cumulative IPC: 2.30021 (Simulation time: 0 hr 17 min 59 sec) 
Heartbeat CPU 0 instructions: 790000003 cycles: 328592838 heartbeat IPC: 2.29844 cumulative IPC: 2.30018 (Simulation time: 0 hr 18 min 13 sec) 
Heartbeat CPU 0 instructions: 800000002 cycles: 332943265 heartbeat IPC: 2.29862 cumulative IPC: 2.30016 (Simulation time: 0 hr 18 min 26 sec) 
Heartbeat CPU 0 instructions: 810000000 cycles: 337292673 heartbeat IPC: 2.29916 cumulative IPC: 2.30015 (Simulation time: 0 hr 18 min 40 sec) 
Heartbeat CPU 0 instructions: 820000002 cycles: 341646455 heartbeat IPC: 2.29685 cumulative IPC: 2.3001 (Simulation time: 0 hr 18 min 54 sec) 
Heartbeat CPU 0 instructions: 830000000 cycles: 346013540 heartbeat IPC: 2.28986 cumulative IPC: 2.29996 (Simulation time: 0 hr 19 min 7 sec) 
Heartbeat CPU 0 instructions: 840000001 cycles: 350367516 heartbeat IPC: 2.29675 cumulative IPC: 2.29992 (Simulation time: 0 hr 19 min 21 sec) 
Heartbeat CPU 0 instructions: 850000002 cycles: 354717556 heartbeat IPC: 2.29883 cumulative IPC: 2.2999 (Simulation time: 0 hr 19 min 35 sec) 
Heartbeat CPU 0 instructions: 860000002 cycles: 359067059 heartbeat IPC: 2.29911 cumulative IPC: 2.29989 (Simulation time: 0 hr 19 min 49 sec) 
Heartbeat CPU 0 instructions: 870000000 cycles: 363423288 heartbeat IPC: 2.29556 cumulative IPC: 2.29984 (Simulation time: 0 hr 20 min 3 sec) 
Heartbeat CPU 0 instructions: 880000000 cycles: 367774773 heartbeat IPC: 2.29807 cumulative IPC: 2.29981 (Simulation time: 0 hr 20 min 16 sec) 
Heartbeat CPU 0 instructions: 890000001 cycles: 372122763 heartbeat IPC: 2.29991 cumulative IPC: 2.29981 (Simulation time: 0 hr 20 min 30 sec) 
Heartbeat CPU 0 instructions: 900000001 cycles: 376470627 heartbeat IPC: 2.29998 cumulative IPC: 2.29982 (Simulation time: 0 hr 20 min 44 sec) 
Heartbeat CPU 0 instructions: 910000002 cycles: 380819581 heartbeat IPC: 2.2994 cumulative IPC: 2.29981 (Simulation time: 0 hr 20 min 57 sec) 
Heartbeat CPU 0 instructions: 920000001 cycles: 385167577 heartbeat IPC: 2.29991 cumulative IPC: 2.29981 (Simulation time: 0 hr 21 min 11 sec) 
Heartbeat CPU 0 instructions: 930000000 cycles: 389513825 heartbeat IPC: 2.30083 cumulative IPC: 2.29982 (Simulation time: 0 hr 21 min 25 sec) 
Heartbeat CPU 0 instructions: 940000000 cycles: 393859426 heartbeat IPC: 2.30118 cumulative IPC: 2.29984 (Simulation time: 0 hr 21 min 38 sec) 
Heartbeat CPU 0 instructions: 950000000 cycles: 398206903 heartbeat IPC: 2.30018 cumulative IPC: 2.29984 (Simulation time: 0 hr 21 min 52 sec) 
Heartbeat CPU 0 instructions: 960000002 cycles: 402556186 heartbeat IPC: 2.29923 cumulative IPC: 2.29984 (Simulation time: 0 hr 22 min 5 sec) 
Heartbeat CPU 0 instructions: 970000002 cycles: 406903030 heartbeat IPC: 2.30052 cumulative IPC: 2.29985 (Simulation time: 0 hr 22 min 19 sec) 
Heartbeat CPU 0 instructions: 980000001 cycles: 411251276 heartbeat IPC: 2.29978 cumulative IPC: 2.29984 (Simulation time: 0 hr 22 min 32 sec) 
Heartbeat CPU 0 instructions: 990000000 cycles: 415597997 heartbeat IPC: 2.30058 cumulative IPC: 2.29985 (Simulation time: 0 hr 22 min 46 sec) 
Heartbeat CPU 0 instructions: 1000000003 cycles: 419944783 heartbeat IPC: 2.30055 cumulative IPC: 2.29986 (Simulation time: 0 hr 22 min 59 sec) 
Heartbeat CPU 0 instructions: 1010000000 cycles: 424291806 heartbeat IPC: 2.30042 cumulative IPC: 2.29987 (Simulation time: 0 hr 23 min 13 sec) 
Heartbeat CPU 0 instructions: 1020000001 cycles: 428635934 heartbeat IPC: 2.30196 cumulative IPC: 2.29989 (Simulation time: 0 hr 23 min 26 sec) 
Heartbeat CPU 0 instructions: 1030000003 cycles: 432979413 heartbeat IPC: 2.3023 cumulative IPC: 2.29992 (Simulation time: 0 hr 23 min 40 sec) 
Heartbeat CPU 0 instructions: 1040000002 cycles: 437324370 heartbeat IPC: 2.30152 cumulative IPC: 2.29993 (Simulation time: 0 hr 23 min 53 sec) 
Heartbeat CPU 0 instructions: 1050000000 cycles: 441668353 heartbeat IPC: 2.30203 cumulative IPC: 2.29995 (Simulation time: 0 hr 24 min 7 sec) 
Heartbeat CPU 0 instructions: 1060000001 cycles: 446012223 heartbeat IPC: 2.30209 cumulative IPC: 2.29998 (Simulation time: 0 hr 24 min 20 sec) 
Heartbeat CPU 0 instructions: 1070000000 cycles: 450355198 heartbeat IPC: 2.30257 cumulative IPC: 2.3 (Simulation time: 0 hr 24 min 34 sec) 
Heartbeat CPU 0 instructions: 1080000001 cycles: 454701386 heartbeat IPC: 2.30087 cumulative IPC: 2.30001 (Simulation time: 0 hr 24 min 47 sec) 
Heartbeat CPU 0 instructions: 1090000003 cycles: 459047837 heartbeat IPC: 2.30073 cumulative IPC: 2.30002 (Simulation time: 0 hr 25 min 1 sec) 
Heartbeat CPU 0 instructions: 1100000000 cycles: 463392631 heartbeat IPC: 2.3016 cumulative IPC: 2.30004 (Simulation time: 0 hr 25 min 14 sec) 
Finished CPU 0 instructions: 1000000001 cycles: 434775910 cumulative IPC: 2.30004 (Simulation time: 0 hr 25 min 14 sec) 

ChampSim completed all CPUs

Region of Interest Statistics

CPU 0 cumulative IPC: 2.30004 instructions: 1000000001 cycles: 434775910
L1D TOTAL     ACCESS:   56259222  HIT:   47359507  MISS:    8899715
L1D LOAD      ACCESS:   56215817  HIT:   47322031  MISS:    8893786
L1D RFO       ACCESS:      43405  HIT:      37476  MISS:       5929
L1D PREFETCH  ACCESS:          0  HIT:          0  MISS:          0
L1D WRITEBACK ACCESS:          0  HIT:          0  MISS:          0
L1D PREFETCH  REQUESTED:          0  ISSUED:          0  USEFUL:          0  USELESS:          0
L1D AVERAGE MISS LATENCY: 23.0889 cycles
L1I TOTAL     ACCESS:  155818642  HIT:  155818642  MISS:          0
L1I LOAD      ACCESS:  155818642  HIT:  155818642  MISS:          0
L1I RFO       ACCESS:          0  HIT:          0  MISS:          0
L1I PREFETCH  ACCESS:          0  HIT:          0  MISS:          0
L1I WRITEBACK ACCESS:          0  HIT:          0  MISS:          0
L1I PREFETCH  REQUESTED:          0  ISSUED:          0  USEFUL:          0  USELESS:          0
L1I AVERAGE MISS LATENCY: -nan cycles
L2C TOTAL     ACCESS:    8914009  HIT:    6715721  MISS:    2198288
L2C LOAD      ACCESS:    8893786  HIT:    6696292  MISS:    2197494
L2C RFO       ACCESS:       5929  HIT:       5135  MISS:        794
L2C PREFETCH  ACCESS:          0  HIT:          0  MISS:          0
L2C WRITEBACK ACCESS:      14294  HIT:      14294  MISS:          0
L2C PREFETCH  REQUESTED:          0  ISSUED:          0  USEFUL:          0  USELESS:          0
L2C AVERAGE MISS LATENCY: 32.6062 cycles
LLC TOTAL     ACCESS:    2202747  HIT:    2162990  MISS:      39757
LLC LOAD      ACCESS:    2197492  HIT:    2158126  MISS:      39366
LLC RFO       ACCESS:        794  HIT:        445  MISS:        349
LLC PREFETCH  ACCESS:          0  HIT:          0  MISS:          0
LLC WRITEBACK ACCESS:       4461  HIT:       4419  MISS:         42
LLC PREFETCH  REQUESTED:          0  ISSUED:          0  USEFUL:          0  USELESS:          0
LLC AVERAGE MISS LATENCY: 144.014 cycles
Major fault: 0 Minor fault: 838
==============================
Perceptron RRIP Stats:
   Num Updates: 2367714
   Num Trains:  312
==============================
perceptron #0: 6 6 0 -2 -6 -4 -6 -4 -8 0 12 -4 -6 0 2 -2 0 0 12 -14 0 


DRAM Statistics
 CHANNEL 0
 RQ ROW_BUFFER_HIT:      10657  ROW_BUFFER_MISS:      29058
 DBUS_CONGESTED:          0
 WQ ROW_BUFFER_HIT:          0  ROW_BUFFER_MISS:        144  FULL:          0

 AVG_CONGESTED_CYCLE: -

CPU 0 Branch Prediction Accuracy: 99.6978% MPKI: 0.312803 Average ROB Occupancy at Mispredict: 135.304

Branch types
NOT_BRANCH: 896497959 89.6498%
BRANCH_DIRECT_JUMP: 5582 0.0005582%
BRANCH_INDIRECT: 0 0%
BRANCH_CONDITIONAL: 103496181 10.3496%
BRANCH_DIRECT_CALL: 0 0%
BRANCH_INDIRECT_CALL: 0 0%
BRANCH_RETURN: 0 0%
BRANCH_OTHER: 0 0%

