
*** ChampSim Multicore Out-of-Order Simulator ***

Warmup Instructions: 100000000
Simulation Instructions: 1000000000
Number of CPUs: 1
LLC sets: 2048
LLC ways: 16
Off-chip DRAM Size: 4096 MB Channels: 1 Width: 64-bit Data Rate: 3200 MT/s

CPU 0 runs /scratch/user/kevin.weston/dpc3-traces/641.champsimtrace.xz
CPU 0 Bimodal branch predictor
Initialize RRPV
Initialize PRRIP state
Heartbeat CPU 0 instructions: 10000003 cycles: 4648830 heartbeat IPC: 2.15108 cumulative IPC: 2.15108 (Simulation time: 0 hr 0 min 25 sec) 
Heartbeat CPU 0 instructions: 20000003 cycles: 9294091 heartbeat IPC: 2.15273 cumulative IPC: 2.15191 (Simulation time: 0 hr 0 min 49 sec) 
Heartbeat CPU 0 instructions: 30000001 cycles: 13957850 heartbeat IPC: 2.14419 cumulative IPC: 2.14933 (Simulation time: 0 hr 1 min 13 sec) 
Heartbeat CPU 0 instructions: 40000002 cycles: 18608336 heartbeat IPC: 2.15031 cumulative IPC: 2.14957 (Simulation time: 0 hr 1 min 36 sec) 
Heartbeat CPU 0 instructions: 50000001 cycles: 23253701 heartbeat IPC: 2.15268 cumulative IPC: 2.1502 (Simulation time: 0 hr 2 min 0 sec) 
Heartbeat CPU 0 instructions: 60000000 cycles: 27911092 heartbeat IPC: 2.14712 cumulative IPC: 2.14968 (Simulation time: 0 hr 2 min 24 sec) 
Heartbeat CPU 0 instructions: 70000001 cycles: 32567950 heartbeat IPC: 2.14737 cumulative IPC: 2.14935 (Simulation time: 0 hr 2 min 48 sec) 
Heartbeat CPU 0 instructions: 80000001 cycles: 37231096 heartbeat IPC: 2.14447 cumulative IPC: 2.14874 (Simulation time: 0 hr 3 min 12 sec) 
Heartbeat CPU 0 instructions: 90000003 cycles: 41896544 heartbeat IPC: 2.14342 cumulative IPC: 2.14815 (Simulation time: 0 hr 3 min 36 sec) 
Heartbeat CPU 0 instructions: 100000000 cycles: 46536208 heartbeat IPC: 2.15533 cumulative IPC: 2.14886 (Simulation time: 0 hr 4 min 0 sec) 

Warmup complete CPU 0 instructions: 100000004 cycles: 46536209 (Simulation time: 0 hr 4 min 0 sec) 

Heartbeat CPU 0 instructions: 110000000 cycles: 59664761 heartbeat IPC: 0.761699 cumulative IPC: 0.761698 (Simulation time: 0 hr 4 min 18 sec) 
Heartbeat CPU 0 instructions: 120000001 cycles: 77319628 heartbeat IPC: 0.566416 cumulative IPC: 0.6497 (Simulation time: 0 hr 4 min 39 sec) 
Heartbeat CPU 0 instructions: 130000000 cycles: 90594290 heartbeat IPC: 0.753315 cumulative IPC: 0.680919 (Simulation time: 0 hr 4 min 57 sec) 
Heartbeat CPU 0 instructions: 140000000 cycles: 103795773 heartbeat IPC: 0.757491 cumulative IPC: 0.698573 (Simulation time: 0 hr 5 min 15 sec) 
Heartbeat CPU 0 instructions: 150000001 cycles: 116939322 heartbeat IPC: 0.76083 cumulative IPC: 0.710196 (Simulation time: 0 hr 5 min 32 sec) 
Heartbeat CPU 0 instructions: 160000002 cycles: 130155423 heartbeat IPC: 0.756653 cumulative IPC: 0.717538 (Simulation time: 0 hr 5 min 50 sec) 
Heartbeat CPU 0 instructions: 170000001 cycles: 143428499 heartbeat IPC: 0.753405 cumulative IPC: 0.722452 (Simulation time: 0 hr 6 min 8 sec) 
Heartbeat CPU 0 instructions: 180000001 cycles: 156661865 heartbeat IPC: 0.755666 cumulative IPC: 0.726443 (Simulation time: 0 hr 6 min 26 sec) 
Heartbeat CPU 0 instructions: 190000003 cycles: 169891833 heartbeat IPC: 0.75586 cumulative IPC: 0.729598 (Simulation time: 0 hr 6 min 44 sec) 
Heartbeat CPU 0 instructions: 200000000 cycles: 183092411 heartbeat IPC: 0.757542 cumulative IPC: 0.732299 (Simulation time: 0 hr 7 min 2 sec) 
Heartbeat CPU 0 instructions: 210000001 cycles: 196216073 heartbeat IPC: 0.761983 cumulative IPC: 0.734902 (Simulation time: 0 hr 7 min 19 sec) 
Heartbeat CPU 0 instructions: 220000000 cycles: 209429505 heartbeat IPC: 0.756806 cumulative IPC: 0.736679 (Simulation time: 0 hr 7 min 37 sec) 
Heartbeat CPU 0 instructions: 230000000 cycles: 222679099 heartbeat IPC: 0.75474 cumulative IPC: 0.738037 (Simulation time: 0 hr 7 min 55 sec) 
Heartbeat CPU 0 instructions: 240000001 cycles: 235910413 heartbeat IPC: 0.755783 cumulative IPC: 0.739277 (Simulation time: 0 hr 8 min 13 sec) 
Heartbeat CPU 0 instructions: 250000002 cycles: 249096236 heartbeat IPC: 0.75839 cumulative IPC: 0.740521 (Simulation time: 0 hr 8 min 31 sec) 
Heartbeat CPU 0 instructions: 260000000 cycles: 262247009 heartbeat IPC: 0.760411 cumulative IPC: 0.741734 (Simulation time: 0 hr 8 min 48 sec) 
Heartbeat CPU 0 instructions: 270000000 cycles: 275430437 heartbeat IPC: 0.758528 cumulative IPC: 0.742701 (Simulation time: 0 hr 9 min 6 sec) 
Heartbeat CPU 0 instructions: 280000000 cycles: 288606537 heartbeat IPC: 0.75895 cumulative IPC: 0.743586 (Simulation time: 0 hr 9 min 24 sec) 
Heartbeat CPU 0 instructions: 290000001 cycles: 301688032 heartbeat IPC: 0.764439 cumulative IPC: 0.744655 (Simulation time: 0 hr 9 min 42 sec) 
Heartbeat CPU 0 instructions: 300000001 cycles: 314838337 heartbeat IPC: 0.760439 cumulative IPC: 0.745428 (Simulation time: 0 hr 10 min 0 sec) 
Heartbeat CPU 0 instructions: 310000000 cycles: 327940293 heartbeat IPC: 0.763245 cumulative IPC: 0.746258 (Simulation time: 0 hr 10 min 17 sec) 
Heartbeat CPU 0 instructions: 320000002 cycles: 341088331 heartbeat IPC: 0.76057 cumulative IPC: 0.746897 (Simulation time: 0 hr 10 min 35 sec) 
Heartbeat CPU 0 instructions: 330000000 cycles: 354174768 heartbeat IPC: 0.76415 cumulative IPC: 0.747631 (Simulation time: 0 hr 10 min 53 sec) 
Heartbeat CPU 0 instructions: 340000001 cycles: 367311650 heartbeat IPC: 0.761216 cumulative IPC: 0.748187 (Simulation time: 0 hr 11 min 11 sec) 
Heartbeat CPU 0 instructions: 350000001 cycles: 380503340 heartbeat IPC: 0.758053 cumulative IPC: 0.748577 (Simulation time: 0 hr 11 min 29 sec) 
Heartbeat CPU 0 instructions: 360000001 cycles: 393653729 heartbeat IPC: 0.760434 cumulative IPC: 0.749026 (Simulation time: 0 hr 11 min 46 sec) 
Heartbeat CPU 0 instructions: 370000002 cycles: 406761847 heartbeat IPC: 0.762886 cumulative IPC: 0.74953 (Simulation time: 0 hr 12 min 4 sec) 
Heartbeat CPU 0 instructions: 380000001 cycles: 419969338 heartbeat IPC: 0.757146 cumulative IPC: 0.7498 (Simulation time: 0 hr 12 min 22 sec) 
Heartbeat CPU 0 instructions: 390000001 cycles: 433190953 heartbeat IPC: 0.756337 cumulative IPC: 0.750023 (Simulation time: 0 hr 12 min 40 sec) 
Heartbeat CPU 0 instructions: 400000000 cycles: 446353143 heartbeat IPC: 0.759752 cumulative IPC: 0.750343 (Simulation time: 0 hr 12 min 58 sec) 
Heartbeat CPU 0 instructions: 410000001 cycles: 459465946 heartbeat IPC: 0.762614 cumulative IPC: 0.750733 (Simulation time: 0 hr 13 min 16 sec) 
Heartbeat CPU 0 instructions: 420000000 cycles: 472670472 heartbeat IPC: 0.757316 cumulative IPC: 0.750937 (Simulation time: 0 hr 13 min 33 sec) 
Heartbeat CPU 0 instructions: 430000001 cycles: 485932445 heartbeat IPC: 0.754036 cumulative IPC: 0.751031 (Simulation time: 0 hr 13 min 51 sec) 
Heartbeat CPU 0 instructions: 440000000 cycles: 499097093 heartbeat IPC: 0.75961 cumulative IPC: 0.75128 (Simulation time: 0 hr 14 min 9 sec) 
Heartbeat CPU 0 instructions: 450000002 cycles: 512307816 heartbeat IPC: 0.756961 cumulative IPC: 0.751441 (Simulation time: 0 hr 14 min 27 sec) 
Heartbeat CPU 0 instructions: 460000000 cycles: 525484451 heartbeat IPC: 0.758919 cumulative IPC: 0.751647 (Simulation time: 0 hr 14 min 45 sec) 
Heartbeat CPU 0 instructions: 470000000 cycles: 538715248 heartbeat IPC: 0.755812 cumulative IPC: 0.751759 (Simulation time: 0 hr 15 min 3 sec) 
Heartbeat CPU 0 instructions: 480000003 cycles: 551940314 heartbeat IPC: 0.75614 cumulative IPC: 0.751874 (Simulation time: 0 hr 15 min 20 sec) 
Heartbeat CPU 0 instructions: 490000000 cycles: 564953494 heartbeat IPC: 0.768451 cumulative IPC: 0.75229 (Simulation time: 0 hr 15 min 38 sec) 
Heartbeat CPU 0 instructions: 500000002 cycles: 578053310 heartbeat IPC: 0.76337 cumulative IPC: 0.752563 (Simulation time: 0 hr 15 min 56 sec) 
Heartbeat CPU 0 instructions: 510000003 cycles: 591226196 heartbeat IPC: 0.759135 cumulative IPC: 0.752722 (Simulation time: 0 hr 16 min 14 sec) 
Heartbeat CPU 0 instructions: 520000001 cycles: 604495367 heartbeat IPC: 0.753626 cumulative IPC: 0.752743 (Simulation time: 0 hr 16 min 32 sec) 
Heartbeat CPU 0 instructions: 530000002 cycles: 617711194 heartbeat IPC: 0.756669 cumulative IPC: 0.752834 (Simulation time: 0 hr 16 min 49 sec) 
Heartbeat CPU 0 instructions: 540000001 cycles: 630887805 heartbeat IPC: 0.75892 cumulative IPC: 0.752971 (Simulation time: 0 hr 17 min 7 sec) 
Heartbeat CPU 0 instructions: 550000000 cycles: 644058232 heartbeat IPC: 0.759277 cumulative IPC: 0.75311 (Simulation time: 0 hr 17 min 25 sec) 
Heartbeat CPU 0 instructions: 560000001 cycles: 657262069 heartbeat IPC: 0.757356 cumulative IPC: 0.753202 (Simulation time: 0 hr 17 min 43 sec) 
Heartbeat CPU 0 instructions: 570000001 cycles: 670455711 heartbeat IPC: 0.757941 cumulative IPC: 0.753302 (Simulation time: 0 hr 18 min 0 sec) 
Heartbeat CPU 0 instructions: 580000000 cycles: 683577639 heartbeat IPC: 0.762083 cumulative IPC: 0.753483 (Simulation time: 0 hr 18 min 18 sec) 
Heartbeat CPU 0 instructions: 590000000 cycles: 696750772 heartbeat IPC: 0.759121 cumulative IPC: 0.753597 (Simulation time: 0 hr 18 min 36 sec) 
Heartbeat CPU 0 instructions: 600000001 cycles: 709899747 heartbeat IPC: 0.760516 cumulative IPC: 0.753735 (Simulation time: 0 hr 18 min 54 sec) 
Heartbeat CPU 0 instructions: 610000002 cycles: 723087742 heartbeat IPC: 0.758265 cumulative IPC: 0.753823 (Simulation time: 0 hr 19 min 12 sec) 
Heartbeat CPU 0 instructions: 620000002 cycles: 736296639 heartbeat IPC: 0.757065 cumulative IPC: 0.753885 (Simulation time: 0 hr 19 min 29 sec) 
Heartbeat CPU 0 instructions: 630000001 cycles: 749502258 heartbeat IPC: 0.757253 cumulative IPC: 0.753948 (Simulation time: 0 hr 19 min 47 sec) 
Heartbeat CPU 0 instructions: 640000001 cycles: 762745210 heartbeat IPC: 0.755119 cumulative IPC: 0.75397 (Simulation time: 0 hr 20 min 5 sec) 
Heartbeat CPU 0 instructions: 650000001 cycles: 775942265 heartbeat IPC: 0.757745 cumulative IPC: 0.754038 (Simulation time: 0 hr 20 min 23 sec) 
Heartbeat CPU 0 instructions: 660000000 cycles: 789101830 heartbeat IPC: 0.759903 cumulative IPC: 0.754142 (Simulation time: 0 hr 20 min 40 sec) 
Heartbeat CPU 0 instructions: 670000000 cycles: 802295502 heartbeat IPC: 0.757939 cumulative IPC: 0.754208 (Simulation time: 0 hr 20 min 58 sec) 
Heartbeat CPU 0 instructions: 680000003 cycles: 815513559 heartbeat IPC: 0.756541 cumulative IPC: 0.754248 (Simulation time: 0 hr 21 min 16 sec) 
Heartbeat CPU 0 instructions: 690000000 cycles: 828697265 heartbeat IPC: 0.758512 cumulative IPC: 0.75432 (Simulation time: 0 hr 21 min 34 sec) 
Heartbeat CPU 0 instructions: 700000002 cycles: 841898105 heartbeat IPC: 0.757528 cumulative IPC: 0.754374 (Simulation time: 0 hr 21 min 51 sec) 
Heartbeat CPU 0 instructions: 710000002 cycles: 855023159 heartbeat IPC: 0.761902 cumulative IPC: 0.754496 (Simulation time: 0 hr 22 min 9 sec) 
Heartbeat CPU 0 instructions: 720000001 cycles: 868255803 heartbeat IPC: 0.755707 cumulative IPC: 0.754515 (Simulation time: 0 hr 22 min 27 sec) 
Heartbeat CPU 0 instructions: 730000000 cycles: 881472299 heartbeat IPC: 0.75663 cumulative IPC: 0.754549 (Simulation time: 0 hr 22 min 45 sec) 
Heartbeat CPU 0 instructions: 740000002 cycles: 894666567 heartbeat IPC: 0.757905 cumulative IPC: 0.754601 (Simulation time: 0 hr 23 min 3 sec) 
Heartbeat CPU 0 instructions: 750000001 cycles: 907891597 heartbeat IPC: 0.756142 cumulative IPC: 0.754625 (Simulation time: 0 hr 23 min 20 sec) 
Heartbeat CPU 0 instructions: 760000002 cycles: 921088204 heartbeat IPC: 0.757771 cumulative IPC: 0.754672 (Simulation time: 0 hr 23 min 38 sec) 
Heartbeat CPU 0 instructions: 770000000 cycles: 934241324 heartbeat IPC: 0.760276 cumulative IPC: 0.754755 (Simulation time: 0 hr 23 min 56 sec) 
Heartbeat CPU 0 instructions: 780000000 cycles: 947457084 heartbeat IPC: 0.756672 cumulative IPC: 0.754783 (Simulation time: 0 hr 24 min 14 sec) 
Heartbeat CPU 0 instructions: 790000000 cycles: 960599876 heartbeat IPC: 0.760873 cumulative IPC: 0.754871 (Simulation time: 0 hr 24 min 32 sec) 
Heartbeat CPU 0 instructions: 800000001 cycles: 973769862 heartbeat IPC: 0.759302 cumulative IPC: 0.754934 (Simulation time: 0 hr 24 min 49 sec) 
Heartbeat CPU 0 instructions: 810000001 cycles: 986923632 heartbeat IPC: 0.760238 cumulative IPC: 0.755008 (Simulation time: 0 hr 25 min 7 sec) 
Heartbeat CPU 0 instructions: 820000000 cycles: 1000114307 heartbeat IPC: 0.758111 cumulative IPC: 0.755051 (Simulation time: 0 hr 25 min 25 sec) 
Heartbeat CPU 0 instructions: 830000000 cycles: 1013252090 heartbeat IPC: 0.761163 cumulative IPC: 0.755134 (Simulation time: 0 hr 25 min 42 sec) 
Heartbeat CPU 0 instructions: 840000001 cycles: 1026352151 heartbeat IPC: 0.763355 cumulative IPC: 0.755244 (Simulation time: 0 hr 26 min 0 sec) 
Heartbeat CPU 0 instructions: 850000000 cycles: 1039510592 heartbeat IPC: 0.759968 cumulative IPC: 0.755306 (Simulation time: 0 hr 26 min 17 sec) 
Heartbeat CPU 0 instructions: 860000000 cycles: 1052654771 heartbeat IPC: 0.760793 cumulative IPC: 0.755378 (Simulation time: 0 hr 26 min 35 sec) 
Heartbeat CPU 0 instructions: 870000002 cycles: 1065830351 heartbeat IPC: 0.75898 cumulative IPC: 0.755425 (Simulation time: 0 hr 26 min 53 sec) 
Heartbeat CPU 0 instructions: 880000000 cycles: 1079017489 heartbeat IPC: 0.758314 cumulative IPC: 0.755462 (Simulation time: 0 hr 27 min 10 sec) 
Heartbeat CPU 0 instructions: 890000002 cycles: 1092093120 heartbeat IPC: 0.764782 cumulative IPC: 0.755578 (Simulation time: 0 hr 27 min 28 sec) 
Heartbeat CPU 0 instructions: 900000002 cycles: 1105132286 heartbeat IPC: 0.76692 cumulative IPC: 0.755718 (Simulation time: 0 hr 27 min 46 sec) 
Heartbeat CPU 0 instructions: 910000001 cycles: 1118207480 heartbeat IPC: 0.764807 cumulative IPC: 0.755829 (Simulation time: 0 hr 28 min 4 sec) 
Heartbeat CPU 0 instructions: 920000001 cycles: 1131367444 heartbeat IPC: 0.75988 cumulative IPC: 0.755878 (Simulation time: 0 hr 28 min 21 sec) 
Heartbeat CPU 0 instructions: 930000002 cycles: 1144533915 heartbeat IPC: 0.759505 cumulative IPC: 0.755921 (Simulation time: 0 hr 28 min 39 sec) 
Heartbeat CPU 0 instructions: 940000000 cycles: 1157601566 heartbeat IPC: 0.765248 cumulative IPC: 0.756031 (Simulation time: 0 hr 28 min 57 sec) 
Heartbeat CPU 0 instructions: 950000000 cycles: 1170690368 heartbeat IPC: 0.764012 cumulative IPC: 0.756124 (Simulation time: 0 hr 29 min 14 sec) 
Heartbeat CPU 0 instructions: 960000001 cycles: 1188266370 heartbeat IPC: 0.568958 cumulative IPC: 0.753243 (Simulation time: 0 hr 29 min 35 sec) 
Heartbeat CPU 0 instructions: 970000000 cycles: 1201335477 heartbeat IPC: 0.765163 cumulative IPC: 0.753378 (Simulation time: 0 hr 29 min 53 sec) 
Heartbeat CPU 0 instructions: 980000002 cycles: 1214378643 heartbeat IPC: 0.766685 cumulative IPC: 0.753526 (Simulation time: 0 hr 30 min 11 sec) 
Heartbeat CPU 0 instructions: 990000000 cycles: 1227446459 heartbeat IPC: 0.765239 cumulative IPC: 0.753656 (Simulation time: 0 hr 30 min 28 sec) 
Heartbeat CPU 0 instructions: 1000000000 cycles: 1240556564 heartbeat IPC: 0.76277 cumulative IPC: 0.753756 (Simulation time: 0 hr 30 min 46 sec) 
Heartbeat CPU 0 instructions: 1010000002 cycles: 1253617898 heartbeat IPC: 0.765619 cumulative IPC: 0.753884 (Simulation time: 0 hr 31 min 4 sec) 
Heartbeat CPU 0 instructions: 1020000001 cycles: 1266669543 heartbeat IPC: 0.766187 cumulative IPC: 0.754016 (Simulation time: 0 hr 31 min 21 sec) 
Heartbeat CPU 0 instructions: 1030000000 cycles: 1279719148 heartbeat IPC: 0.766307 cumulative IPC: 0.754146 (Simulation time: 0 hr 31 min 39 sec) 
Heartbeat CPU 0 instructions: 1040000003 cycles: 1292780169 heartbeat IPC: 0.765637 cumulative IPC: 0.754266 (Simulation time: 0 hr 31 min 57 sec) 
Heartbeat CPU 0 instructions: 1050000003 cycles: 1305920447 heartbeat IPC: 0.761019 cumulative IPC: 0.754337 (Simulation time: 0 hr 32 min 14 sec) 
Heartbeat CPU 0 instructions: 1060000001 cycles: 1318972314 heartbeat IPC: 0.766174 cumulative IPC: 0.754458 (Simulation time: 0 hr 32 min 32 sec) 
Heartbeat CPU 0 instructions: 1070000000 cycles: 1332028749 heartbeat IPC: 0.765906 cumulative IPC: 0.754575 (Simulation time: 0 hr 32 min 50 sec) 
Heartbeat CPU 0 instructions: 1080000001 cycles: 1345137182 heartbeat IPC: 0.762868 cumulative IPC: 0.754658 (Simulation time: 0 hr 33 min 7 sec) 
Heartbeat CPU 0 instructions: 1090000000 cycles: 1358257449 heartbeat IPC: 0.76218 cumulative IPC: 0.754734 (Simulation time: 0 hr 33 min 25 sec) 
Heartbeat CPU 0 instructions: 1100000000 cycles: 1371285049 heartbeat IPC: 0.767601 cumulative IPC: 0.75486 (Simulation time: 0 hr 33 min 42 sec) 
Finished CPU 0 instructions: 1000000000 cycles: 1324748850 cumulative IPC: 0.75486 (Simulation time: 0 hr 33 min 42 sec) 

ChampSim completed all CPUs

Region of Interest Statistics

CPU 0 cumulative IPC: 0.75486 instructions: 1000000000 cycles: 1324748850
L1D TOTAL     ACCESS:  313011309  HIT:  310712349  MISS:    2298960
L1D LOAD      ACCESS:  198942673  HIT:  196912119  MISS:    2030554
L1D RFO       ACCESS:  114068636  HIT:  113800230  MISS:     268406
L1D PREFETCH  ACCESS:          0  HIT:          0  MISS:          0
L1D WRITEBACK ACCESS:          0  HIT:          0  MISS:          0
L1D PREFETCH  REQUESTED:          0  ISSUED:          0  USEFUL:          0  USELESS:          0
L1D AVERAGE MISS LATENCY: 23.0853 cycles
L1I TOTAL     ACCESS:  183873567  HIT:  183816949  MISS:      56618
L1I LOAD      ACCESS:  183873567  HIT:  183816949  MISS:      56618
L1I RFO       ACCESS:          0  HIT:          0  MISS:          0
L1I PREFETCH  ACCESS:          0  HIT:          0  MISS:          0
L1I WRITEBACK ACCESS:          0  HIT:          0  MISS:          0
L1I PREFETCH  REQUESTED:          0  ISSUED:          0  USEFUL:          0  USELESS:          0
L1I AVERAGE MISS LATENCY: 19.4909 cycles
L2C TOTAL     ACCESS:    2805548  HIT:    2601136  MISS:     204412
L2C LOAD      ACCESS:    2087167  HIT:    1952852  MISS:     134315
L2C RFO       ACCESS:     268399  HIT:     199052  MISS:      69347
L2C PREFETCH  ACCESS:          0  HIT:          0  MISS:          0
L2C WRITEBACK ACCESS:     449982  HIT:     449232  MISS:        750
L2C PREFETCH  REQUESTED:          0  ISSUED:          0  USEFUL:          0  USELESS:          0
L2C AVERAGE MISS LATENCY: 92.1109 cycles
LLC TOTAL     ACCESS:     281915  HIT:     162177  MISS:     119738
LLC LOAD      ACCESS:     134315  HIT:      90072  MISS:      44243
LLC RFO       ACCESS:      69347  HIT:      19372  MISS:      49975
LLC PREFETCH  ACCESS:          0  HIT:          0  MISS:          0
LLC WRITEBACK ACCESS:      78253  HIT:      52733  MISS:      25520
LLC PREFETCH  REQUESTED:          0  ISSUED:          0  USEFUL:          0  USELESS:          0
LLC AVERAGE MISS LATENCY: 105.877 cycles
Major fault: 0 Minor fault: 1740
==============================
Perceptron RRIP Stats:
   Num Updates: 180605
   Num Trains:  11594
==============================
perceptron #0: -14 -8 -2 -2 0 0 0 0 4 -4 0 8 4 0 -2 6 -2 -4 -2 -4 -6 6 -6 -4 

perceptron #1: -13 -7 3 3 5 -1 3 1 3 -5 7 1 5 1 -1 5 -3 -7 -3 -1 -5 -1 -5 -7 

perceptron #2: -6 -8 -8 2 0 2 2 2 2 -2 2 6 4 -4 0 4 0 -6 -8 -8 0 2 -2 -16 

perceptron #3: -8 -2 0 6 -2 -10 -2 2 -2 -4 8 6 6 2 -2 0 -6 -4 -8 -8 2 4 -2 -10 

perceptron #4: -8 -8 -2 4 2 -4 2 -2 2 -4 0 6 4 0 -10 0 -4 0 -4 -6 -6 -2 -2 -18 

perceptron #5: -5 -5 -3 -1 1 1 3 3 5 -7 -3 9 3 -3 -9 1 -3 -3 -1 -1 -5 1 -9 -13 

perceptron #6: -7 -7 -5 1 5 -3 -1 -1 1 -1 3 3 3 -3 -3 3 -3 -1 -3 -3 -3 -1 -3 -17 

perceptron #7: -5 -5 1 5 -3 -5 1 1 3 -3 9 11 7 1 -3 1 3 -1 -5 -7 1 1 -3 -15 


DRAM Statistics
 CHANNEL 0
 RQ ROW_BUFFER_HIT:      41024  ROW_BUFFER_MISS:      53123
 DBUS_CONGESTED:      19876
 WQ ROW_BUFFER_HIT:      12079  ROW_BUFFER_MISS:      14279  FULL:          0

 AVG_CONGESTED_CYCLE: 6

CPU 0 Branch Prediction Accuracy: 87.4973% MPKI: 20.452 Average ROB Occupancy at Mispredict: 23.8941

Branch types
NOT_BRANCH: 836419616 83.642%
BRANCH_DIRECT_JUMP: 5445299 0.54453%
BRANCH_INDIRECT: 6861 0.0006861%
BRANCH_CONDITIONAL: 99292811 9.92928%
BRANCH_DIRECT_CALL: 29417492 2.94175%
BRANCH_INDIRECT_CALL: 78 7.8e-06%
BRANCH_RETURN: 29417568 2.94176%
BRANCH_OTHER: 0 0%

