
*** ChampSim Multicore Out-of-Order Simulator ***

Warmup Instructions: 100000000
Simulation Instructions: 1000000000
Number of CPUs: 1
LLC sets: 2048
LLC ways: 16
Off-chip DRAM Size: 4096 MB Channels: 1 Width: 64-bit Data Rate: 3200 MT/s

CPU 0 runs /scratch/user/kevin.weston/dpc3-traces/641.champsimtrace.xz
CPU 0 Bimodal branch predictor
Initialize RRPV
Initialize PRRIP state
Heartbeat CPU 0 instructions: 10000003 cycles: 4648830 heartbeat IPC: 2.15108 cumulative IPC: 2.15108 (Simulation time: 0 hr 0 min 24 sec) 
Heartbeat CPU 0 instructions: 20000003 cycles: 9294091 heartbeat IPC: 2.15273 cumulative IPC: 2.15191 (Simulation time: 0 hr 0 min 48 sec) 
Heartbeat CPU 0 instructions: 30000001 cycles: 13957850 heartbeat IPC: 2.14419 cumulative IPC: 2.14933 (Simulation time: 0 hr 1 min 11 sec) 
Heartbeat CPU 0 instructions: 40000002 cycles: 18608336 heartbeat IPC: 2.15031 cumulative IPC: 2.14957 (Simulation time: 0 hr 1 min 35 sec) 
Heartbeat CPU 0 instructions: 50000001 cycles: 23253701 heartbeat IPC: 2.15268 cumulative IPC: 2.1502 (Simulation time: 0 hr 1 min 59 sec) 
Heartbeat CPU 0 instructions: 60000000 cycles: 27911092 heartbeat IPC: 2.14712 cumulative IPC: 2.14968 (Simulation time: 0 hr 2 min 22 sec) 
Heartbeat CPU 0 instructions: 70000001 cycles: 32567950 heartbeat IPC: 2.14737 cumulative IPC: 2.14935 (Simulation time: 0 hr 2 min 46 sec) 
Heartbeat CPU 0 instructions: 80000001 cycles: 37231096 heartbeat IPC: 2.14447 cumulative IPC: 2.14874 (Simulation time: 0 hr 3 min 10 sec) 
Heartbeat CPU 0 instructions: 90000003 cycles: 41896544 heartbeat IPC: 2.14342 cumulative IPC: 2.14815 (Simulation time: 0 hr 3 min 33 sec) 
Heartbeat CPU 0 instructions: 100000000 cycles: 46536208 heartbeat IPC: 2.15533 cumulative IPC: 2.14886 (Simulation time: 0 hr 3 min 57 sec) 

Warmup complete CPU 0 instructions: 100000004 cycles: 46536209 (Simulation time: 0 hr 3 min 57 sec) 

Heartbeat CPU 0 instructions: 110000000 cycles: 59664761 heartbeat IPC: 0.761699 cumulative IPC: 0.761698 (Simulation time: 0 hr 4 min 14 sec) 
Heartbeat CPU 0 instructions: 120000001 cycles: 77339986 heartbeat IPC: 0.565764 cumulative IPC: 0.649271 (Simulation time: 0 hr 4 min 35 sec) 
Heartbeat CPU 0 instructions: 130000000 cycles: 90615853 heartbeat IPC: 0.753246 cumulative IPC: 0.680586 (Simulation time: 0 hr 4 min 52 sec) 
Heartbeat CPU 0 instructions: 140000000 cycles: 103818479 heartbeat IPC: 0.757425 cumulative IPC: 0.698296 (Simulation time: 0 hr 5 min 9 sec) 
Heartbeat CPU 0 instructions: 150000001 cycles: 116963864 heartbeat IPC: 0.760723 cumulative IPC: 0.709948 (Simulation time: 0 hr 5 min 27 sec) 
Heartbeat CPU 0 instructions: 160000002 cycles: 130180749 heartbeat IPC: 0.756608 cumulative IPC: 0.717321 (Simulation time: 0 hr 5 min 44 sec) 
Heartbeat CPU 0 instructions: 170000001 cycles: 143453122 heartbeat IPC: 0.753445 cumulative IPC: 0.722268 (Simulation time: 0 hr 6 min 2 sec) 
Heartbeat CPU 0 instructions: 180000001 cycles: 156687919 heartbeat IPC: 0.755584 cumulative IPC: 0.726271 (Simulation time: 0 hr 6 min 19 sec) 
Heartbeat CPU 0 instructions: 190000003 cycles: 169918803 heartbeat IPC: 0.755808 cumulative IPC: 0.729438 (Simulation time: 0 hr 6 min 36 sec) 
Heartbeat CPU 0 instructions: 200000000 cycles: 183123834 heartbeat IPC: 0.757287 cumulative IPC: 0.732131 (Simulation time: 0 hr 6 min 54 sec) 
Heartbeat CPU 0 instructions: 210000001 cycles: 196249309 heartbeat IPC: 0.761877 cumulative IPC: 0.734739 (Simulation time: 0 hr 7 min 11 sec) 
Heartbeat CPU 0 instructions: 220000000 cycles: 209467782 heartbeat IPC: 0.756517 cumulative IPC: 0.736505 (Simulation time: 0 hr 7 min 29 sec) 
Heartbeat CPU 0 instructions: 230000000 cycles: 222719208 heartbeat IPC: 0.754636 cumulative IPC: 0.737869 (Simulation time: 0 hr 7 min 46 sec) 
Heartbeat CPU 0 instructions: 240000001 cycles: 235958149 heartbeat IPC: 0.755347 cumulative IPC: 0.739091 (Simulation time: 0 hr 8 min 4 sec) 
Heartbeat CPU 0 instructions: 250000002 cycles: 249146021 heartbeat IPC: 0.758273 cumulative IPC: 0.740339 (Simulation time: 0 hr 8 min 21 sec) 
Heartbeat CPU 0 instructions: 260000000 cycles: 262300603 heartbeat IPC: 0.760191 cumulative IPC: 0.74155 (Simulation time: 0 hr 8 min 39 sec) 
Heartbeat CPU 0 instructions: 270000000 cycles: 275485551 heartbeat IPC: 0.758441 cumulative IPC: 0.742522 (Simulation time: 0 hr 8 min 56 sec) 
Heartbeat CPU 0 instructions: 280000000 cycles: 288663644 heartbeat IPC: 0.758835 cumulative IPC: 0.74341 (Simulation time: 0 hr 9 min 14 sec) 
Heartbeat CPU 0 instructions: 290000001 cycles: 301746447 heartbeat IPC: 0.764362 cumulative IPC: 0.744484 (Simulation time: 0 hr 9 min 31 sec) 
Heartbeat CPU 0 instructions: 300000001 cycles: 314899750 heartbeat IPC: 0.760265 cumulative IPC: 0.745258 (Simulation time: 0 hr 9 min 49 sec) 
Heartbeat CPU 0 instructions: 310000000 cycles: 328003543 heartbeat IPC: 0.763138 cumulative IPC: 0.74609 (Simulation time: 0 hr 10 min 7 sec) 
Heartbeat CPU 0 instructions: 320000002 cycles: 341152875 heartbeat IPC: 0.760495 cumulative IPC: 0.746733 (Simulation time: 0 hr 10 min 24 sec) 
Heartbeat CPU 0 instructions: 330000000 cycles: 354241239 heartbeat IPC: 0.764037 cumulative IPC: 0.747469 (Simulation time: 0 hr 10 min 42 sec) 
Heartbeat CPU 0 instructions: 340000001 cycles: 367379703 heartbeat IPC: 0.761124 cumulative IPC: 0.748028 (Simulation time: 0 hr 11 min 0 sec) 
Heartbeat CPU 0 instructions: 350000001 cycles: 380575129 heartbeat IPC: 0.757838 cumulative IPC: 0.748416 (Simulation time: 0 hr 11 min 17 sec) 
Heartbeat CPU 0 instructions: 360000001 cycles: 393727909 heartbeat IPC: 0.760296 cumulative IPC: 0.748866 (Simulation time: 0 hr 11 min 35 sec) 
Heartbeat CPU 0 instructions: 370000002 cycles: 406838195 heartbeat IPC: 0.76276 cumulative IPC: 0.749371 (Simulation time: 0 hr 11 min 53 sec) 
Heartbeat CPU 0 instructions: 380000001 cycles: 420048415 heartbeat IPC: 0.75699 cumulative IPC: 0.749641 (Simulation time: 0 hr 12 min 11 sec) 
Heartbeat CPU 0 instructions: 390000001 cycles: 433281196 heartbeat IPC: 0.755699 cumulative IPC: 0.749848 (Simulation time: 0 hr 12 min 28 sec) 
Heartbeat CPU 0 instructions: 400000000 cycles: 446445928 heartbeat IPC: 0.759605 cumulative IPC: 0.750169 (Simulation time: 0 hr 12 min 46 sec) 
Heartbeat CPU 0 instructions: 410000001 cycles: 459560318 heartbeat IPC: 0.762521 cumulative IPC: 0.750561 (Simulation time: 0 hr 13 min 4 sec) 
Heartbeat CPU 0 instructions: 420000000 cycles: 472767983 heartbeat IPC: 0.757136 cumulative IPC: 0.750765 (Simulation time: 0 hr 13 min 21 sec) 
Heartbeat CPU 0 instructions: 430000001 cycles: 486034052 heartbeat IPC: 0.753803 cumulative IPC: 0.750857 (Simulation time: 0 hr 13 min 39 sec) 
Heartbeat CPU 0 instructions: 440000000 cycles: 499195964 heartbeat IPC: 0.759768 cumulative IPC: 0.751116 (Simulation time: 0 hr 13 min 57 sec) 
Heartbeat CPU 0 instructions: 450000002 cycles: 512409645 heartbeat IPC: 0.756792 cumulative IPC: 0.751277 (Simulation time: 0 hr 14 min 15 sec) 
Heartbeat CPU 0 instructions: 460000000 cycles: 525590582 heartbeat IPC: 0.758671 cumulative IPC: 0.75148 (Simulation time: 0 hr 14 min 32 sec) 
Heartbeat CPU 0 instructions: 470000000 cycles: 538823099 heartbeat IPC: 0.755714 cumulative IPC: 0.751594 (Simulation time: 0 hr 14 min 50 sec) 
Heartbeat CPU 0 instructions: 480000003 cycles: 552049321 heartbeat IPC: 0.756074 cumulative IPC: 0.751711 (Simulation time: 0 hr 15 min 8 sec) 
Heartbeat CPU 0 instructions: 490000000 cycles: 565064126 heartbeat IPC: 0.768355 cumulative IPC: 0.752129 (Simulation time: 0 hr 15 min 25 sec) 
Heartbeat CPU 0 instructions: 500000002 cycles: 578165801 heartbeat IPC: 0.763261 cumulative IPC: 0.752404 (Simulation time: 0 hr 15 min 43 sec) 
Heartbeat CPU 0 instructions: 510000003 cycles: 591339219 heartbeat IPC: 0.759104 cumulative IPC: 0.752566 (Simulation time: 0 hr 16 min 0 sec) 
Heartbeat CPU 0 instructions: 520000001 cycles: 604608889 heartbeat IPC: 0.753598 cumulative IPC: 0.75259 (Simulation time: 0 hr 16 min 18 sec) 
Heartbeat CPU 0 instructions: 530000002 cycles: 617826071 heartbeat IPC: 0.756591 cumulative IPC: 0.752683 (Simulation time: 0 hr 16 min 36 sec) 
Heartbeat CPU 0 instructions: 540000001 cycles: 631003612 heartbeat IPC: 0.758867 cumulative IPC: 0.752822 (Simulation time: 0 hr 16 min 53 sec) 
Heartbeat CPU 0 instructions: 550000000 cycles: 644175066 heartbeat IPC: 0.759218 cumulative IPC: 0.752963 (Simulation time: 0 hr 17 min 11 sec) 
Heartbeat CPU 0 instructions: 560000001 cycles: 657380289 heartbeat IPC: 0.757276 cumulative IPC: 0.753056 (Simulation time: 0 hr 17 min 29 sec) 
Heartbeat CPU 0 instructions: 570000001 cycles: 670574615 heartbeat IPC: 0.757902 cumulative IPC: 0.753159 (Simulation time: 0 hr 17 min 46 sec) 
Heartbeat CPU 0 instructions: 580000000 cycles: 683697227 heartbeat IPC: 0.762043 cumulative IPC: 0.753342 (Simulation time: 0 hr 18 min 4 sec) 
Heartbeat CPU 0 instructions: 590000000 cycles: 696871215 heartbeat IPC: 0.759072 cumulative IPC: 0.753458 (Simulation time: 0 hr 18 min 22 sec) 
Heartbeat CPU 0 instructions: 600000001 cycles: 710020703 heartbeat IPC: 0.760486 cumulative IPC: 0.753597 (Simulation time: 0 hr 18 min 40 sec) 
Heartbeat CPU 0 instructions: 610000002 cycles: 723210001 heartbeat IPC: 0.758191 cumulative IPC: 0.753687 (Simulation time: 0 hr 18 min 57 sec) 
Heartbeat CPU 0 instructions: 620000002 cycles: 736419883 heartbeat IPC: 0.757009 cumulative IPC: 0.75375 (Simulation time: 0 hr 19 min 15 sec) 
Heartbeat CPU 0 instructions: 630000001 cycles: 749626528 heartbeat IPC: 0.757195 cumulative IPC: 0.753815 (Simulation time: 0 hr 19 min 32 sec) 
Heartbeat CPU 0 instructions: 640000001 cycles: 762870765 heartbeat IPC: 0.755045 cumulative IPC: 0.753838 (Simulation time: 0 hr 19 min 50 sec) 
Heartbeat CPU 0 instructions: 650000001 cycles: 776068111 heartbeat IPC: 0.757728 cumulative IPC: 0.753908 (Simulation time: 0 hr 20 min 8 sec) 
Heartbeat CPU 0 instructions: 660000000 cycles: 789228189 heartbeat IPC: 0.759874 cumulative IPC: 0.754014 (Simulation time: 0 hr 20 min 25 sec) 
Heartbeat CPU 0 instructions: 670000000 cycles: 802422352 heartbeat IPC: 0.757911 cumulative IPC: 0.754082 (Simulation time: 0 hr 20 min 43 sec) 
Heartbeat CPU 0 instructions: 680000003 cycles: 815640651 heartbeat IPC: 0.756527 cumulative IPC: 0.754124 (Simulation time: 0 hr 21 min 1 sec) 
Heartbeat CPU 0 instructions: 690000000 cycles: 828825105 heartbeat IPC: 0.758469 cumulative IPC: 0.754197 (Simulation time: 0 hr 21 min 18 sec) 
Heartbeat CPU 0 instructions: 700000002 cycles: 842026435 heartbeat IPC: 0.7575 cumulative IPC: 0.754252 (Simulation time: 0 hr 21 min 36 sec) 
Heartbeat CPU 0 instructions: 710000002 cycles: 855152344 heartbeat IPC: 0.761852 cumulative IPC: 0.754375 (Simulation time: 0 hr 21 min 54 sec) 
Heartbeat CPU 0 instructions: 720000001 cycles: 868385814 heartbeat IPC: 0.75566 cumulative IPC: 0.754396 (Simulation time: 0 hr 22 min 11 sec) 
Heartbeat CPU 0 instructions: 730000000 cycles: 881602894 heartbeat IPC: 0.756597 cumulative IPC: 0.754431 (Simulation time: 0 hr 22 min 29 sec) 
Heartbeat CPU 0 instructions: 740000002 cycles: 894797325 heartbeat IPC: 0.757896 cumulative IPC: 0.754485 (Simulation time: 0 hr 22 min 47 sec) 
Heartbeat CPU 0 instructions: 750000001 cycles: 908023039 heartbeat IPC: 0.756103 cumulative IPC: 0.75451 (Simulation time: 0 hr 23 min 4 sec) 
Heartbeat CPU 0 instructions: 760000002 cycles: 921220323 heartbeat IPC: 0.757732 cumulative IPC: 0.754558 (Simulation time: 0 hr 23 min 22 sec) 
Heartbeat CPU 0 instructions: 770000000 cycles: 934374168 heartbeat IPC: 0.760234 cumulative IPC: 0.754642 (Simulation time: 0 hr 23 min 40 sec) 
Heartbeat CPU 0 instructions: 780000000 cycles: 947590541 heartbeat IPC: 0.756637 cumulative IPC: 0.754671 (Simulation time: 0 hr 23 min 57 sec) 
Heartbeat CPU 0 instructions: 790000000 cycles: 960733504 heartbeat IPC: 0.760863 cumulative IPC: 0.754761 (Simulation time: 0 hr 24 min 15 sec) 
Heartbeat CPU 0 instructions: 800000001 cycles: 973904367 heartbeat IPC: 0.759252 cumulative IPC: 0.754824 (Simulation time: 0 hr 24 min 33 sec) 
Heartbeat CPU 0 instructions: 810000001 cycles: 987058650 heartbeat IPC: 0.760209 cumulative IPC: 0.7549 (Simulation time: 0 hr 24 min 50 sec) 
Heartbeat CPU 0 instructions: 820000000 cycles: 1000249917 heartbeat IPC: 0.758077 cumulative IPC: 0.754944 (Simulation time: 0 hr 25 min 8 sec) 
Heartbeat CPU 0 instructions: 830000000 cycles: 1013387871 heartbeat IPC: 0.761154 cumulative IPC: 0.755028 (Simulation time: 0 hr 25 min 26 sec) 
Heartbeat CPU 0 instructions: 840000001 cycles: 1026488374 heartbeat IPC: 0.76333 cumulative IPC: 0.755139 (Simulation time: 0 hr 25 min 44 sec) 
Heartbeat CPU 0 instructions: 850000000 cycles: 1039646850 heartbeat IPC: 0.759966 cumulative IPC: 0.755203 (Simulation time: 0 hr 26 min 2 sec) 
Heartbeat CPU 0 instructions: 860000000 cycles: 1052790929 heartbeat IPC: 0.760799 cumulative IPC: 0.755276 (Simulation time: 0 hr 26 min 20 sec) 
Heartbeat CPU 0 instructions: 870000002 cycles: 1065967022 heartbeat IPC: 0.75895 cumulative IPC: 0.755323 (Simulation time: 0 hr 26 min 37 sec) 
Heartbeat CPU 0 instructions: 880000000 cycles: 1079154331 heartbeat IPC: 0.758305 cumulative IPC: 0.755361 (Simulation time: 0 hr 26 min 55 sec) 
Heartbeat CPU 0 instructions: 890000002 cycles: 1092230652 heartbeat IPC: 0.764741 cumulative IPC: 0.755479 (Simulation time: 0 hr 27 min 13 sec) 
Heartbeat CPU 0 instructions: 900000002 cycles: 1105270260 heartbeat IPC: 0.766894 cumulative IPC: 0.755619 (Simulation time: 0 hr 27 min 31 sec) 
Heartbeat CPU 0 instructions: 910000001 cycles: 1118345683 heartbeat IPC: 0.764794 cumulative IPC: 0.755731 (Simulation time: 0 hr 27 min 49 sec) 
Heartbeat CPU 0 instructions: 920000001 cycles: 1131506171 heartbeat IPC: 0.75985 cumulative IPC: 0.755781 (Simulation time: 0 hr 28 min 7 sec) 
Heartbeat CPU 0 instructions: 930000002 cycles: 1144673497 heartbeat IPC: 0.759456 cumulative IPC: 0.755825 (Simulation time: 0 hr 28 min 25 sec) 
Heartbeat CPU 0 instructions: 940000000 cycles: 1157741060 heartbeat IPC: 0.765253 cumulative IPC: 0.755936 (Simulation time: 0 hr 28 min 42 sec) 
Heartbeat CPU 0 instructions: 950000000 cycles: 1170830461 heartbeat IPC: 0.763977 cumulative IPC: 0.75603 (Simulation time: 0 hr 29 min 0 sec) 
Heartbeat CPU 0 instructions: 960000001 cycles: 1188193641 heartbeat IPC: 0.575931 cumulative IPC: 0.753291 (Simulation time: 0 hr 29 min 21 sec) 
Heartbeat CPU 0 instructions: 970000000 cycles: 1201259294 heartbeat IPC: 0.765365 cumulative IPC: 0.753427 (Simulation time: 0 hr 29 min 39 sec) 
Heartbeat CPU 0 instructions: 980000002 cycles: 1214299065 heartbeat IPC: 0.766885 cumulative IPC: 0.753578 (Simulation time: 0 hr 29 min 56 sec) 
Heartbeat CPU 0 instructions: 990000000 cycles: 1227363956 heartbeat IPC: 0.76541 cumulative IPC: 0.753709 (Simulation time: 0 hr 30 min 14 sec) 
Heartbeat CPU 0 instructions: 1000000000 cycles: 1240474132 heartbeat IPC: 0.762766 cumulative IPC: 0.753808 (Simulation time: 0 hr 30 min 32 sec) 
Heartbeat CPU 0 instructions: 1010000002 cycles: 1253534409 heartbeat IPC: 0.765681 cumulative IPC: 0.753937 (Simulation time: 0 hr 30 min 50 sec) 
Heartbeat CPU 0 instructions: 1020000001 cycles: 1266586509 heartbeat IPC: 0.76616 cumulative IPC: 0.754067 (Simulation time: 0 hr 31 min 8 sec) 
Heartbeat CPU 0 instructions: 1030000000 cycles: 1279635668 heartbeat IPC: 0.766333 cumulative IPC: 0.754197 (Simulation time: 0 hr 31 min 26 sec) 
Heartbeat CPU 0 instructions: 1040000003 cycles: 1292696119 heartbeat IPC: 0.765671 cumulative IPC: 0.754317 (Simulation time: 0 hr 31 min 44 sec) 
Heartbeat CPU 0 instructions: 1050000003 cycles: 1305836854 heartbeat IPC: 0.760992 cumulative IPC: 0.754387 (Simulation time: 0 hr 32 min 2 sec) 
Heartbeat CPU 0 instructions: 1060000001 cycles: 1318890191 heartbeat IPC: 0.766087 cumulative IPC: 0.754507 (Simulation time: 0 hr 32 min 20 sec) 
Heartbeat CPU 0 instructions: 1070000000 cycles: 1331948343 heartbeat IPC: 0.765805 cumulative IPC: 0.754622 (Simulation time: 0 hr 32 min 38 sec) 
Heartbeat CPU 0 instructions: 1080000001 cycles: 1345056814 heartbeat IPC: 0.762866 cumulative IPC: 0.754705 (Simulation time: 0 hr 32 min 56 sec) 
Heartbeat CPU 0 instructions: 1090000000 cycles: 1358176984 heartbeat IPC: 0.762185 cumulative IPC: 0.75478 (Simulation time: 0 hr 33 min 15 sec) 
Heartbeat CPU 0 instructions: 1100000000 cycles: 1371205651 heartbeat IPC: 0.767538 cumulative IPC: 0.754905 (Simulation time: 0 hr 33 min 33 sec) 
Finished CPU 0 instructions: 1000000000 cycles: 1324669452 cumulative IPC: 0.754905 (Simulation time: 0 hr 33 min 33 sec) 

ChampSim completed all CPUs

Region of Interest Statistics

CPU 0 cumulative IPC: 0.754905 instructions: 1000000000 cycles: 1324669452
L1D TOTAL     ACCESS:  313014625  HIT:  310715665  MISS:    2298960
L1D LOAD      ACCESS:  198942493  HIT:  196911939  MISS:    2030554
L1D RFO       ACCESS:  114072132  HIT:  113803726  MISS:     268406
L1D PREFETCH  ACCESS:          0  HIT:          0  MISS:          0
L1D WRITEBACK ACCESS:          0  HIT:          0  MISS:          0
L1D PREFETCH  REQUESTED:          0  ISSUED:          0  USEFUL:          0  USELESS:          0
L1D AVERAGE MISS LATENCY: 22.8653 cycles
L1I TOTAL     ACCESS:  183873587  HIT:  183816969  MISS:      56618
L1I LOAD      ACCESS:  183873587  HIT:  183816969  MISS:      56618
L1I RFO       ACCESS:          0  HIT:          0  MISS:          0
L1I PREFETCH  ACCESS:          0  HIT:          0  MISS:          0
L1I WRITEBACK ACCESS:          0  HIT:          0  MISS:          0
L1I PREFETCH  REQUESTED:          0  ISSUED:          0  USEFUL:          0  USELESS:          0
L1I AVERAGE MISS LATENCY: 19.5008 cycles
L2C TOTAL     ACCESS:    2805548  HIT:    2601136  MISS:     204412
L2C LOAD      ACCESS:    2087167  HIT:    1952852  MISS:     134315
L2C RFO       ACCESS:     268399  HIT:     199052  MISS:      69347
L2C PREFETCH  ACCESS:          0  HIT:          0  MISS:          0
L2C WRITEBACK ACCESS:     449982  HIT:     449232  MISS:        750
L2C PREFETCH  REQUESTED:          0  ISSUED:          0  USEFUL:          0  USELESS:          0
L2C AVERAGE MISS LATENCY: 89.6413 cycles
LLC TOTAL     ACCESS:     281915  HIT:     162854  MISS:     119061
LLC LOAD      ACCESS:     134315  HIT:      89705  MISS:      44610
LLC RFO       ACCESS:      69347  HIT:      21435  MISS:      47912
LLC PREFETCH  ACCESS:          0  HIT:          0  MISS:          0
LLC WRITEBACK ACCESS:      78253  HIT:      51714  MISS:      26539
LLC PREFETCH  REQUESTED:          0  ISSUED:          0  USEFUL:          0  USELESS:          0
LLC AVERAGE MISS LATENCY: 102.235 cycles
Major fault: 0 Minor fault: 1740
==============================
Perceptron RRIP Stats:
   Num Updates: 180605
   Num Trains:  36854
==============================
perceptron #0: -22 2 0 2 2 4 0 -4 4 -8 -4 16 4 0 -8 -20 8 2 -10 4 14 10 10 10 10 10 -10 

perceptron #1: -13 -1 7 -5 25 -9 1 7 1 -17 -7 19 9 -9 -3 -7 -3 -17 5 -9 5 5 5 5 5 -5 -5 

perceptron #2: -16 0 -4 4 -4 4 -6 -8 -6 4 10 16 18 -2 0 -8 0 -2 4 12 6 14 14 14 -14 14 -14 

perceptron #3: -27 -7 -15 -9 11 -7 9 11 -9 15 -1 9 9 15 -13 -5 -9 1 -9 17 -7 7 7 7 -7 -7 -7 

perceptron #4: -28 8 0 -6 10 4 -6 0 6 -8 4 0 0 2 -4 -14 4 -10 -2 4 24 10 10 -10 10 10 -10 

perceptron #5: -12 10 -14 8 8 12 4 -4 2 -2 2 12 14 10 -4 -16 12 -6 2 -4 2 10 10 -10 10 -10 -10 

perceptron #6: -25 -3 11 -1 3 -5 -21 7 -3 -7 5 19 9 7 -11 -9 7 -1 5 -1 3 7 7 -7 -7 7 -7 

perceptron #7: -10 -4 -8 -4 -4 6 -2 2 -10 0 0 2 18 14 -12 -18 12 8 -12 14 -6 16 16 -16 -16 -16 -16 

perceptron #8: -21 -3 3 -1 1 -11 1 -3 7 -5 15 15 9 7 -5 -3 3 -7 -11 5 1 11 -11 11 11 11 -11 

perceptron #9: -19 1 13 -1 -1 -3 -21 -7 -5 -11 9 19 17 7 -5 -3 3 -3 -9 -3 9 11 -11 11 11 -11 -11 

perceptron #10: -7 -13 -17 -17 3 -1 9 15 -5 1 7 -3 7 -1 -11 -3 1 -1 -7 -7 -3 5 -5 5 -5 5 -5 

perceptron #11: -9 -7 -15 -13 3 -3 -1 15 -13 9 13 5 27 13 -31 -17 -1 -3 -7 17 1 15 -15 15 -15 -15 -15 

perceptron #12: 2 0 -4 2 -6 -2 2 2 4 12 10 4 14 8 -2 -8 -4 14 14 8 -2 20 -20 -20 20 20 -20 

perceptron #13: -3 -7 -13 7 5 -11 7 1 -9 11 5 9 13 1 3 -13 -9 5 -1 -1 3 15 -15 -15 15 -15 -15 

perceptron #14: -6 -4 -2 16 -2 -8 -6 -8 -4 6 6 6 16 2 -2 -16 -6 4 4 -2 8 16 -16 -16 -16 16 -16 

perceptron #15: -6 -14 -8 2 -8 -2 -2 -6 -2 10 10 12 16 10 -10 -26 10 6 -2 2 -2 16 -16 -16 -16 -16 -16 

perceptron #16: -27 -15 -5 -3 25 -7 -3 -1 -15 -19 -9 3 17 -1 -11 -5 -13 -1 -7 5 -3 3 -3 -3 -3 -3 3 

perceptron #17: -16 2 -8 4 8 6 4 -4 4 2 10 6 18 2 -4 -10 -8 -2 -14 2 14 -14 14 14 14 -14 -14 

perceptron #18: -6 -10 6 6 10 6 -2 -2 4 -2 6 12 2 -6 -12 -2 -4 10 -14 2 -2 -12 12 12 -12 12 -12 

perceptron #19: -19 -11 1 9 1 -3 -13 -11 3 -9 5 7 9 1 -7 -11 -15 1 -7 -15 -5 -7 7 7 -7 -7 -7 

perceptron #20: -16 0 2 14 10 -2 0 -2 8 -12 8 14 12 4 -4 -8 0 6 -10 0 6 -12 12 -12 12 12 -12 

perceptron #21: -7 -1 -3 11 11 5 -7 -5 1 -13 7 -3 17 5 3 -11 1 7 5 -1 11 -7 7 -7 7 -7 -7 

perceptron #22: -31 -9 -9 -9 9 19 -9 -11 -17 -5 17 -1 13 1 -3 -23 11 13 -7 1 1 -5 5 -5 -5 5 -5 

perceptron #23: -25 -13 19 23 21 3 -3 -7 17 -23 5 5 3 1 -1 -7 -5 1 -3 1 5 -9 9 -9 -9 -9 -9 

perceptron #24: -18 2 -8 -4 6 -4 -4 8 -16 -4 14 8 12 0 -16 -6 -8 4 -4 -6 -2 -6 -6 6 6 6 -6 

perceptron #25: -9 -15 -7 -1 9 -3 -1 15 -7 3 5 1 9 -1 -11 -9 3 11 -3 3 5 -13 -13 13 13 -13 -13 

perceptron #26: -14 -14 -14 0 4 -6 -4 -8 -14 6 6 -8 18 6 0 -16 2 2 0 2 8 -16 -16 16 -16 16 -16 

perceptron #27: -30 -8 12 4 -6 -4 -12 -10 -10 -6 6 8 24 4 -4 -4 4 4 -8 6 -6 -8 -8 8 -8 -8 -8 

perceptron #28: -16 -10 -4 8 4 -12 4 -22 -4 6 10 0 18 8 -16 -22 -2 2 14 18 -10 -18 -18 -18 18 18 -18 

perceptron #29: -2 -4 -4 -10 4 -8 -4 8 -6 14 18 -8 20 -10 -14 -14 -6 0 2 -4 -8 -18 -18 -18 18 -18 -18 

perceptron #30: -9 -3 -7 1 1 -7 5 -3 -5 15 15 -3 9 5 -7 -5 -5 9 -5 3 7 -17 -17 -17 -17 17 -17 

perceptron #31: -15 -7 -7 -3 1 -1 -1 3 -9 11 13 -5 23 -1 -9 -11 -7 15 11 -7 9 -17 -17 -17 -17 -17 -17 


DRAM Statistics
 CHANNEL 0
 RQ ROW_BUFFER_HIT:      43038  ROW_BUFFER_MISS:      49438
 DBUS_CONGESTED:      18965
 WQ ROW_BUFFER_HIT:      10362  ROW_BUFFER_MISS:      13898  FULL:        119

 AVG_CONGESTED_CYCLE: 6

CPU 0 Branch Prediction Accuracy: 87.4973% MPKI: 20.452 Average ROB Occupancy at Mispredict: 23.8957

Branch types
NOT_BRANCH: 836419616 83.642%
BRANCH_DIRECT_JUMP: 5445299 0.54453%
BRANCH_INDIRECT: 6861 0.0006861%
BRANCH_CONDITIONAL: 99292811 9.92928%
BRANCH_DIRECT_CALL: 29417492 2.94175%
BRANCH_INDIRECT_CALL: 78 7.8e-06%
BRANCH_RETURN: 29417568 2.94176%
BRANCH_OTHER: 0 0%

