
*** ChampSim Multicore Out-of-Order Simulator ***

Warmup Instructions: 100000000
Simulation Instructions: 1000000000
Number of CPUs: 1
LLC sets: 2048
LLC ways: 16
Off-chip DRAM Size: 4096 MB Channels: 1 Width: 64-bit Data Rate: 3200 MT/s

CPU 0 runs /scratch/user/kevin.weston/dpc3-traces/644.champsimtrace.xz
CPU 0 Bimodal branch predictor
Initialize RRPV
Initialize PRRIP state
Heartbeat CPU 0 instructions: 10000000 cycles: 4240032 heartbeat IPC: 2.35847 cumulative IPC: 2.35847 (Simulation time: 0 hr 0 min 25 sec) 
Heartbeat CPU 0 instructions: 20000001 cycles: 8478114 heartbeat IPC: 2.35956 cumulative IPC: 2.35902 (Simulation time: 0 hr 0 min 50 sec) 
Heartbeat CPU 0 instructions: 30000000 cycles: 12717969 heartbeat IPC: 2.35857 cumulative IPC: 2.35887 (Simulation time: 0 hr 1 min 15 sec) 
Heartbeat CPU 0 instructions: 40000002 cycles: 16957233 heartbeat IPC: 2.3589 cumulative IPC: 2.35888 (Simulation time: 0 hr 1 min 40 sec) 
Heartbeat CPU 0 instructions: 50000001 cycles: 21194179 heartbeat IPC: 2.36019 cumulative IPC: 2.35914 (Simulation time: 0 hr 2 min 5 sec) 
Heartbeat CPU 0 instructions: 60000000 cycles: 25432921 heartbeat IPC: 2.35919 cumulative IPC: 2.35915 (Simulation time: 0 hr 2 min 30 sec) 
Heartbeat CPU 0 instructions: 70000000 cycles: 29671214 heartbeat IPC: 2.35944 cumulative IPC: 2.35919 (Simulation time: 0 hr 2 min 55 sec) 
Heartbeat CPU 0 instructions: 80000002 cycles: 33909999 heartbeat IPC: 2.35917 cumulative IPC: 2.35919 (Simulation time: 0 hr 3 min 20 sec) 
Heartbeat CPU 0 instructions: 90000000 cycles: 38145710 heartbeat IPC: 2.36088 cumulative IPC: 2.35937 (Simulation time: 0 hr 3 min 45 sec) 
Heartbeat CPU 0 instructions: 100000001 cycles: 42386052 heartbeat IPC: 2.3583 cumulative IPC: 2.35927 (Simulation time: 0 hr 4 min 10 sec) 

Warmup complete CPU 0 instructions: 100000001 cycles: 42386052 (Simulation time: 0 hr 4 min 10 sec) 

Heartbeat CPU 0 instructions: 110000000 cycles: 50761128 heartbeat IPC: 1.19402 cumulative IPC: 1.19402 (Simulation time: 0 hr 4 min 30 sec) 
Heartbeat CPU 0 instructions: 120000002 cycles: 59119629 heartbeat IPC: 1.19639 cumulative IPC: 1.1952 (Simulation time: 0 hr 4 min 51 sec) 
Heartbeat CPU 0 instructions: 130000003 cycles: 67481920 heartbeat IPC: 1.19584 cumulative IPC: 1.19542 (Simulation time: 0 hr 5 min 11 sec) 
Heartbeat CPU 0 instructions: 140000001 cycles: 75836788 heartbeat IPC: 1.19691 cumulative IPC: 1.19579 (Simulation time: 0 hr 5 min 32 sec) 
Heartbeat CPU 0 instructions: 150000002 cycles: 84191127 heartbeat IPC: 1.19698 cumulative IPC: 1.19603 (Simulation time: 0 hr 5 min 52 sec) 
Heartbeat CPU 0 instructions: 160000000 cycles: 92573870 heartbeat IPC: 1.19293 cumulative IPC: 1.19551 (Simulation time: 0 hr 6 min 13 sec) 
Heartbeat CPU 0 instructions: 170000003 cycles: 100974970 heartbeat IPC: 1.19032 cumulative IPC: 1.19477 (Simulation time: 0 hr 6 min 33 sec) 
Heartbeat CPU 0 instructions: 180000002 cycles: 109362729 heartbeat IPC: 1.19221 cumulative IPC: 1.19445 (Simulation time: 0 hr 6 min 54 sec) 
Heartbeat CPU 0 instructions: 190000000 cycles: 117764092 heartbeat IPC: 1.19028 cumulative IPC: 1.19398 (Simulation time: 0 hr 7 min 14 sec) 
Heartbeat CPU 0 instructions: 200000003 cycles: 126136654 heartbeat IPC: 1.19438 cumulative IPC: 1.19402 (Simulation time: 0 hr 7 min 35 sec) 
Heartbeat CPU 0 instructions: 210000003 cycles: 134528899 heartbeat IPC: 1.19158 cumulative IPC: 1.1938 (Simulation time: 0 hr 7 min 55 sec) 
Heartbeat CPU 0 instructions: 220000000 cycles: 142952078 heartbeat IPC: 1.1872 cumulative IPC: 1.19325 (Simulation time: 0 hr 8 min 16 sec) 
Heartbeat CPU 0 instructions: 230000000 cycles: 151324552 heartbeat IPC: 1.19439 cumulative IPC: 1.19333 (Simulation time: 0 hr 8 min 36 sec) 
Heartbeat CPU 0 instructions: 240000002 cycles: 159726733 heartbeat IPC: 1.19017 cumulative IPC: 1.19311 (Simulation time: 0 hr 8 min 57 sec) 
Heartbeat CPU 0 instructions: 250000003 cycles: 168120444 heartbeat IPC: 1.19137 cumulative IPC: 1.19299 (Simulation time: 0 hr 9 min 17 sec) 
Heartbeat CPU 0 instructions: 260000000 cycles: 176510675 heartbeat IPC: 1.19186 cumulative IPC: 1.19292 (Simulation time: 0 hr 9 min 38 sec) 
Heartbeat CPU 0 instructions: 270000000 cycles: 184864172 heartbeat IPC: 1.1971 cumulative IPC: 1.19317 (Simulation time: 0 hr 9 min 59 sec) 
Heartbeat CPU 0 instructions: 280000001 cycles: 193194955 heartbeat IPC: 1.20037 cumulative IPC: 1.19356 (Simulation time: 0 hr 10 min 19 sec) 
Heartbeat CPU 0 instructions: 290000000 cycles: 201523574 heartbeat IPC: 1.20068 cumulative IPC: 1.19394 (Simulation time: 0 hr 10 min 40 sec) 
Heartbeat CPU 0 instructions: 300000000 cycles: 209834476 heartbeat IPC: 1.20324 cumulative IPC: 1.1944 (Simulation time: 0 hr 11 min 0 sec) 
Heartbeat CPU 0 instructions: 310000001 cycles: 218160738 heartbeat IPC: 1.20102 cumulative IPC: 1.19471 (Simulation time: 0 hr 11 min 21 sec) 
Heartbeat CPU 0 instructions: 320000000 cycles: 226489738 heartbeat IPC: 1.20062 cumulative IPC: 1.19498 (Simulation time: 0 hr 11 min 41 sec) 
Heartbeat CPU 0 instructions: 330000000 cycles: 234960470 heartbeat IPC: 1.18054 cumulative IPC: 1.19434 (Simulation time: 0 hr 12 min 2 sec) 
Heartbeat CPU 0 instructions: 340000000 cycles: 243368893 heartbeat IPC: 1.18928 cumulative IPC: 1.19413 (Simulation time: 0 hr 12 min 22 sec) 
Heartbeat CPU 0 instructions: 350000000 cycles: 251805078 heartbeat IPC: 1.18537 cumulative IPC: 1.19378 (Simulation time: 0 hr 12 min 43 sec) 
Heartbeat CPU 0 instructions: 360000003 cycles: 260187580 heartbeat IPC: 1.19296 cumulative IPC: 1.19375 (Simulation time: 0 hr 13 min 3 sec) 
Heartbeat CPU 0 instructions: 370000001 cycles: 268604818 heartbeat IPC: 1.18804 cumulative IPC: 1.19353 (Simulation time: 0 hr 13 min 24 sec) 
Heartbeat CPU 0 instructions: 380000002 cycles: 276989256 heartbeat IPC: 1.19269 cumulative IPC: 1.1935 (Simulation time: 0 hr 13 min 45 sec) 
Heartbeat CPU 0 instructions: 390000001 cycles: 285393507 heartbeat IPC: 1.18987 cumulative IPC: 1.19338 (Simulation time: 0 hr 14 min 5 sec) 
Heartbeat CPU 0 instructions: 400000002 cycles: 293766704 heartbeat IPC: 1.19429 cumulative IPC: 1.19341 (Simulation time: 0 hr 14 min 26 sec) 
Heartbeat CPU 0 instructions: 410000000 cycles: 302146295 heartbeat IPC: 1.19338 cumulative IPC: 1.19341 (Simulation time: 0 hr 14 min 47 sec) 
Heartbeat CPU 0 instructions: 420000000 cycles: 310562002 heartbeat IPC: 1.18825 cumulative IPC: 1.19325 (Simulation time: 0 hr 15 min 7 sec) 
Heartbeat CPU 0 instructions: 430000003 cycles: 318969410 heartbeat IPC: 1.18943 cumulative IPC: 1.19313 (Simulation time: 0 hr 15 min 28 sec) 
Heartbeat CPU 0 instructions: 440000000 cycles: 327388672 heartbeat IPC: 1.18775 cumulative IPC: 1.19297 (Simulation time: 0 hr 15 min 49 sec) 
Heartbeat CPU 0 instructions: 450000002 cycles: 335835552 heartbeat IPC: 1.18387 cumulative IPC: 1.19271 (Simulation time: 0 hr 16 min 9 sec) 
Heartbeat CPU 0 instructions: 460000003 cycles: 344289964 heartbeat IPC: 1.18281 cumulative IPC: 1.19243 (Simulation time: 0 hr 16 min 30 sec) 
Heartbeat CPU 0 instructions: 470000002 cycles: 352756894 heartbeat IPC: 1.18107 cumulative IPC: 1.19212 (Simulation time: 0 hr 16 min 51 sec) 
Heartbeat CPU 0 instructions: 480000001 cycles: 361225773 heartbeat IPC: 1.18079 cumulative IPC: 1.19182 (Simulation time: 0 hr 17 min 12 sec) 
Heartbeat CPU 0 instructions: 490000000 cycles: 369668943 heartbeat IPC: 1.18439 cumulative IPC: 1.19163 (Simulation time: 0 hr 17 min 32 sec) 
Heartbeat CPU 0 instructions: 500000003 cycles: 378165896 heartbeat IPC: 1.17689 cumulative IPC: 1.19126 (Simulation time: 0 hr 17 min 53 sec) 
Heartbeat CPU 0 instructions: 510000000 cycles: 386656221 heartbeat IPC: 1.17781 cumulative IPC: 1.19093 (Simulation time: 0 hr 18 min 14 sec) 
Heartbeat CPU 0 instructions: 520000000 cycles: 395211121 heartbeat IPC: 1.16892 cumulative IPC: 1.19039 (Simulation time: 0 hr 18 min 35 sec) 
Heartbeat CPU 0 instructions: 530000002 cycles: 403692386 heartbeat IPC: 1.17907 cumulative IPC: 1.19013 (Simulation time: 0 hr 18 min 55 sec) 
Heartbeat CPU 0 instructions: 540000003 cycles: 412141920 heartbeat IPC: 1.1835 cumulative IPC: 1.18997 (Simulation time: 0 hr 19 min 16 sec) 
Heartbeat CPU 0 instructions: 550000000 cycles: 420612357 heartbeat IPC: 1.18058 cumulative IPC: 1.18976 (Simulation time: 0 hr 19 min 37 sec) 
Heartbeat CPU 0 instructions: 560000001 cycles: 429088972 heartbeat IPC: 1.17972 cumulative IPC: 1.18954 (Simulation time: 0 hr 19 min 58 sec) 
Heartbeat CPU 0 instructions: 570000001 cycles: 437544020 heartbeat IPC: 1.18273 cumulative IPC: 1.1894 (Simulation time: 0 hr 20 min 18 sec) 
Heartbeat CPU 0 instructions: 580000002 cycles: 445966919 heartbeat IPC: 1.18724 cumulative IPC: 1.18935 (Simulation time: 0 hr 20 min 39 sec) 
Heartbeat CPU 0 instructions: 590000000 cycles: 454453497 heartbeat IPC: 1.17833 cumulative IPC: 1.18913 (Simulation time: 0 hr 21 min 0 sec) 
Heartbeat CPU 0 instructions: 600000003 cycles: 462876254 heartbeat IPC: 1.18726 cumulative IPC: 1.18909 (Simulation time: 0 hr 21 min 21 sec) 
Heartbeat CPU 0 instructions: 610000000 cycles: 471312082 heartbeat IPC: 1.18542 cumulative IPC: 1.18902 (Simulation time: 0 hr 21 min 41 sec) 
Heartbeat CPU 0 instructions: 620000000 cycles: 479725486 heartbeat IPC: 1.18858 cumulative IPC: 1.18901 (Simulation time: 0 hr 22 min 2 sec) 
Heartbeat CPU 0 instructions: 630000000 cycles: 488166941 heartbeat IPC: 1.18463 cumulative IPC: 1.18892 (Simulation time: 0 hr 22 min 23 sec) 
Heartbeat CPU 0 instructions: 640000003 cycles: 496597794 heartbeat IPC: 1.18612 cumulative IPC: 1.18887 (Simulation time: 0 hr 22 min 43 sec) 
Heartbeat CPU 0 instructions: 650000003 cycles: 505020328 heartbeat IPC: 1.18729 cumulative IPC: 1.18884 (Simulation time: 0 hr 23 min 4 sec) 
Heartbeat CPU 0 instructions: 660000000 cycles: 513464468 heartbeat IPC: 1.18425 cumulative IPC: 1.18876 (Simulation time: 0 hr 23 min 24 sec) 
Heartbeat CPU 0 instructions: 670000002 cycles: 521927863 heartbeat IPC: 1.18156 cumulative IPC: 1.18863 (Simulation time: 0 hr 23 min 45 sec) 
Heartbeat CPU 0 instructions: 680000002 cycles: 530388543 heartbeat IPC: 1.18194 cumulative IPC: 1.18852 (Simulation time: 0 hr 24 min 6 sec) 
Heartbeat CPU 0 instructions: 690000003 cycles: 538828944 heartbeat IPC: 1.18478 cumulative IPC: 1.18845 (Simulation time: 0 hr 24 min 27 sec) 
Heartbeat CPU 0 instructions: 700000003 cycles: 547264829 heartbeat IPC: 1.18541 cumulative IPC: 1.1884 (Simulation time: 0 hr 24 min 48 sec) 
Heartbeat CPU 0 instructions: 710000000 cycles: 555809764 heartbeat IPC: 1.17028 cumulative IPC: 1.1881 (Simulation time: 0 hr 25 min 9 sec) 
Heartbeat CPU 0 instructions: 720000000 cycles: 564417215 heartbeat IPC: 1.16178 cumulative IPC: 1.18767 (Simulation time: 0 hr 25 min 29 sec) 
Heartbeat CPU 0 instructions: 730000001 cycles: 572951492 heartbeat IPC: 1.17175 cumulative IPC: 1.18741 (Simulation time: 0 hr 25 min 50 sec) 
Heartbeat CPU 0 instructions: 740000002 cycles: 581390525 heartbeat IPC: 1.18497 cumulative IPC: 1.18737 (Simulation time: 0 hr 26 min 11 sec) 
Heartbeat CPU 0 instructions: 750000002 cycles: 589859524 heartbeat IPC: 1.18078 cumulative IPC: 1.18727 (Simulation time: 0 hr 26 min 32 sec) 
Heartbeat CPU 0 instructions: 760000001 cycles: 598290541 heartbeat IPC: 1.1861 cumulative IPC: 1.18725 (Simulation time: 0 hr 26 min 53 sec) 
Heartbeat CPU 0 instructions: 770000000 cycles: 606716121 heartbeat IPC: 1.18686 cumulative IPC: 1.18725 (Simulation time: 0 hr 27 min 14 sec) 
Heartbeat CPU 0 instructions: 780000002 cycles: 615138812 heartbeat IPC: 1.18727 cumulative IPC: 1.18725 (Simulation time: 0 hr 27 min 34 sec) 
Heartbeat CPU 0 instructions: 790000001 cycles: 623503552 heartbeat IPC: 1.19549 cumulative IPC: 1.18737 (Simulation time: 0 hr 27 min 55 sec) 
Heartbeat CPU 0 instructions: 800000000 cycles: 631887035 heartbeat IPC: 1.19282 cumulative IPC: 1.18745 (Simulation time: 0 hr 28 min 16 sec) 
Heartbeat CPU 0 instructions: 810000003 cycles: 640276011 heartbeat IPC: 1.19204 cumulative IPC: 1.18751 (Simulation time: 0 hr 28 min 36 sec) 
Heartbeat CPU 0 instructions: 820000001 cycles: 648632977 heartbeat IPC: 1.19661 cumulative IPC: 1.18763 (Simulation time: 0 hr 28 min 57 sec) 
Heartbeat CPU 0 instructions: 830000002 cycles: 657011291 heartbeat IPC: 1.19356 cumulative IPC: 1.18772 (Simulation time: 0 hr 29 min 18 sec) 
Heartbeat CPU 0 instructions: 840000000 cycles: 665386336 heartbeat IPC: 1.19402 cumulative IPC: 1.1878 (Simulation time: 0 hr 29 min 40 sec) 
Heartbeat CPU 0 instructions: 850000001 cycles: 673763875 heartbeat IPC: 1.19367 cumulative IPC: 1.18788 (Simulation time: 0 hr 30 min 1 sec) 
Heartbeat CPU 0 instructions: 860000000 cycles: 682166612 heartbeat IPC: 1.19009 cumulative IPC: 1.18791 (Simulation time: 0 hr 30 min 22 sec) 
Heartbeat CPU 0 instructions: 870000003 cycles: 690536193 heartbeat IPC: 1.1948 cumulative IPC: 1.188 (Simulation time: 0 hr 30 min 42 sec) 
Heartbeat CPU 0 instructions: 880000000 cycles: 698930846 heartbeat IPC: 1.19123 cumulative IPC: 1.18804 (Simulation time: 0 hr 31 min 3 sec) 
Heartbeat CPU 0 instructions: 890000002 cycles: 707295789 heartbeat IPC: 1.19547 cumulative IPC: 1.18813 (Simulation time: 0 hr 31 min 24 sec) 
Heartbeat CPU 0 instructions: 900000001 cycles: 715631013 heartbeat IPC: 1.19973 cumulative IPC: 1.18827 (Simulation time: 0 hr 31 min 44 sec) 
Heartbeat CPU 0 instructions: 910000001 cycles: 723923223 heartbeat IPC: 1.20595 cumulative IPC: 1.18849 (Simulation time: 0 hr 32 min 5 sec) 
Heartbeat CPU 0 instructions: 920000000 cycles: 732260428 heartbeat IPC: 1.19944 cumulative IPC: 1.18862 (Simulation time: 0 hr 32 min 26 sec) 
Heartbeat CPU 0 instructions: 930000000 cycles: 740691767 heartbeat IPC: 1.18605 cumulative IPC: 1.18859 (Simulation time: 0 hr 32 min 46 sec) 
Heartbeat CPU 0 instructions: 940000001 cycles: 749181108 heartbeat IPC: 1.17795 cumulative IPC: 1.18846 (Simulation time: 0 hr 33 min 7 sec) 
Heartbeat CPU 0 instructions: 950000000 cycles: 757621171 heartbeat IPC: 1.18483 cumulative IPC: 1.18842 (Simulation time: 0 hr 33 min 28 sec) 
Heartbeat CPU 0 instructions: 960000002 cycles: 766140901 heartbeat IPC: 1.17375 cumulative IPC: 1.18825 (Simulation time: 0 hr 33 min 49 sec) 
Heartbeat CPU 0 instructions: 970000000 cycles: 774664982 heartbeat IPC: 1.17315 cumulative IPC: 1.18807 (Simulation time: 0 hr 34 min 10 sec) 
Heartbeat CPU 0 instructions: 980000002 cycles: 783168885 heartbeat IPC: 1.17593 cumulative IPC: 1.18793 (Simulation time: 0 hr 34 min 30 sec) 
Heartbeat CPU 0 instructions: 990000000 cycles: 791668407 heartbeat IPC: 1.17654 cumulative IPC: 1.1878 (Simulation time: 0 hr 34 min 51 sec) 
Heartbeat CPU 0 instructions: 1000000000 cycles: 800158328 heartbeat IPC: 1.17787 cumulative IPC: 1.18769 (Simulation time: 0 hr 35 min 12 sec) 
Heartbeat CPU 0 instructions: 1010000000 cycles: 808707394 heartbeat IPC: 1.16972 cumulative IPC: 1.18749 (Simulation time: 0 hr 35 min 33 sec) 
Heartbeat CPU 0 instructions: 1020000000 cycles: 817290908 heartbeat IPC: 1.16502 cumulative IPC: 1.18724 (Simulation time: 0 hr 35 min 54 sec) 
Heartbeat CPU 0 instructions: 1030000000 cycles: 825880936 heartbeat IPC: 1.16414 cumulative IPC: 1.18699 (Simulation time: 0 hr 36 min 14 sec) 
Heartbeat CPU 0 instructions: 1040000001 cycles: 834496333 heartbeat IPC: 1.16071 cumulative IPC: 1.1867 (Simulation time: 0 hr 36 min 35 sec) 
Heartbeat CPU 0 instructions: 1050000000 cycles: 843157708 heartbeat IPC: 1.15455 cumulative IPC: 1.18636 (Simulation time: 0 hr 36 min 56 sec) 
Heartbeat CPU 0 instructions: 1060000000 cycles: 851816566 heartbeat IPC: 1.15489 cumulative IPC: 1.18602 (Simulation time: 0 hr 37 min 17 sec) 
Heartbeat CPU 0 instructions: 1070000003 cycles: 860475981 heartbeat IPC: 1.15481 cumulative IPC: 1.18569 (Simulation time: 0 hr 37 min 38 sec) 
Heartbeat CPU 0 instructions: 1080000000 cycles: 869126523 heartbeat IPC: 1.156 cumulative IPC: 1.18538 (Simulation time: 0 hr 37 min 59 sec) 
Heartbeat CPU 0 instructions: 1090000000 cycles: 877817261 heartbeat IPC: 1.15065 cumulative IPC: 1.18502 (Simulation time: 0 hr 38 min 20 sec) 
Heartbeat CPU 0 instructions: 1100000000 cycles: 886499144 heartbeat IPC: 1.15182 cumulative IPC: 1.18468 (Simulation time: 0 hr 38 min 41 sec) 
Finished CPU 0 instructions: 1000000000 cycles: 844113100 cumulative IPC: 1.18468 (Simulation time: 0 hr 38 min 41 sec) 

ChampSim completed all CPUs

Region of Interest Statistics

CPU 0 cumulative IPC: 1.18468 instructions: 1000000000 cycles: 844113100
L1D TOTAL     ACCESS:  312963274  HIT:  308878247  MISS:    4085027
L1D LOAD      ACCESS:  202373373  HIT:  198294414  MISS:    4078959
L1D RFO       ACCESS:  110589901  HIT:  110583833  MISS:       6068
L1D PREFETCH  ACCESS:          0  HIT:          0  MISS:          0
L1D WRITEBACK ACCESS:          0  HIT:          0  MISS:          0
L1D PREFETCH  REQUESTED:          0  ISSUED:          0  USEFUL:          0  USELESS:          0
L1D AVERAGE MISS LATENCY: 20.8201 cycles
L1I TOTAL     ACCESS:  157504269  HIT:  157504267  MISS:          2
L1I LOAD      ACCESS:  157504269  HIT:  157504267  MISS:          2
L1I RFO       ACCESS:          0  HIT:          0  MISS:          0
L1I PREFETCH  ACCESS:          0  HIT:          0  MISS:          0
L1I WRITEBACK ACCESS:          0  HIT:          0  MISS:          0
L1I PREFETCH  REQUESTED:          0  ISSUED:          0  USEFUL:          0  USELESS:          0
L1I AVERAGE MISS LATENCY: 215 cycles
L2C TOTAL     ACCESS:    5489032  HIT:    5268055  MISS:     220977
L2C LOAD      ACCESS:    4078959  HIT:    3859018  MISS:     219941
L2C RFO       ACCESS:       6066  HIT:       5142  MISS:        924
L2C PREFETCH  ACCESS:          0  HIT:          0  MISS:          0
L2C WRITEBACK ACCESS:    1404007  HIT:    1403895  MISS:        112
L2C PREFETCH  REQUESTED:          0  ISSUED:          0  USEFUL:          0  USELESS:          0
L2C AVERAGE MISS LATENCY: 106.109 cycles
LLC TOTAL     ACCESS:     236750  HIT:      42194  MISS:     194556
LLC LOAD      ACCESS:     219941  HIT:      27074  MISS:     192867
LLC RFO       ACCESS:        924  HIT:        921  MISS:          3
LLC PREFETCH  ACCESS:          0  HIT:          0  MISS:          0
LLC WRITEBACK ACCESS:      15885  HIT:      14199  MISS:       1686
LLC PREFETCH  REQUESTED:          0  ISSUED:          0  USEFUL:          0  USELESS:          0
LLC AVERAGE MISS LATENCY: 86.3949 cycles
Major fault: 0 Minor fault: 8146
==============================
Perceptron RRIP Stats:
   Num Updates: 210226
   Num Trains:  5422
==============================
perceptron #0: 7 -1 1 3 -3 -1 -1 1 -3 -1 5 1 1 3 1 -13 

perceptron #1: 0 0 2 4 0 -2 2 2 2 0 0 -2 0 6 2 -16 

perceptron #2: 4 2 0 6 -2 0 2 2 2 -2 6 -2 2 4 -2 -16 

perceptron #3: 7 1 3 3 -1 1 3 1 -3 1 7 -3 1 3 1 -17 

perceptron #4: 4 -2 -2 4 -4 0 0 4 0 -6 10 2 0 4 2 -16 

perceptron #5: 7 -5 1 1 5 -3 3 1 1 -3 3 1 1 3 3 -15 

perceptron #6: 8 -2 2 2 2 -4 4 0 4 -2 0 0 0 2 0 -14 

perceptron #7: -2 0 2 6 2 0 0 0 4 -2 4 0 0 2 -2 -16 

perceptron #8: 3 -1 1 3 1 -1 3 1 1 -3 3 -1 3 1 3 -17 

perceptron #9: 2 0 0 4 -2 -2 2 6 2 -2 4 0 -2 6 2 -18 

perceptron #10: 4 4 4 2 0 -4 2 2 0 -4 2 -4 0 2 0 -16 

perceptron #11: 3 -1 1 3 3 -3 5 1 1 -3 -1 1 1 -1 1 -17 

perceptron #12: 9 3 1 5 -1 -1 3 3 1 -1 5 1 -3 3 -1 -19 

perceptron #13: 3 -1 3 3 1 1 -1 -1 1 -5 1 -1 -1 1 -3 -17 

perceptron #14: 6 2 -2 8 -2 2 -2 0 0 -2 6 0 0 4 4 -18 

perceptron #15: 6 -2 2 2 -2 0 4 4 4 -2 4 2 4 2 0 -14 

perceptron #16: 4 2 0 2 0 0 2 0 0 -2 4 -2 0 2 0 -16 

perceptron #17: 0 2 4 0 -2 0 2 0 0 0 -2 -2 0 0 4 -18 

perceptron #18: 6 -2 2 2 0 2 0 2 2 0 2 2 -2 4 0 -18 

perceptron #19: 6 -2 0 6 2 2 4 4 -2 -2 4 4 -2 2 2 -16 

perceptron #20: 7 -1 1 3 1 -3 3 3 -1 -5 5 1 1 1 1 -17 

perceptron #21: 0 0 2 6 0 -2 2 4 -2 -4 8 -2 -2 4 2 -18 

perceptron #22: 2 -2 -2 2 0 -2 2 0 0 -2 0 -2 2 0 -2 -16 

perceptron #23: 8 -2 4 4 0 -2 2 2 0 0 4 2 2 2 2 -16 

perceptron #24: 6 -2 2 0 0 -2 2 4 0 -4 2 -2 2 0 -2 -20 

perceptron #25: 3 -3 -1 3 -1 -3 -1 3 1 -1 -1 -1 -1 1 1 -15 

perceptron #26: 6 -2 2 4 0 -2 2 0 4 0 2 -2 -2 2 0 -16 

perceptron #27: 5 5 1 5 -3 -1 -1 3 -1 -1 7 -1 3 1 -1 -17 

perceptron #28: 0 0 4 6 4 0 2 -2 4 0 2 0 -2 0 0 -18 

perceptron #29: 6 -4 0 4 -2 -4 6 0 2 0 4 -2 -2 0 0 -16 

perceptron #30: 3 3 -3 3 -3 -1 1 3 1 -1 3 1 -1 -1 -1 -17 

perceptron #31: 5 -1 1 1 -1 -3 1 3 5 -3 3 1 -3 1 -1 -19 


DRAM Statistics
 CHANNEL 0
 RQ ROW_BUFFER_HIT:     162626  ROW_BUFFER_MISS:      30244
 DBUS_CONGESTED:       1398
 WQ ROW_BUFFER_HIT:          5  ROW_BUFFER_MISS:        595  FULL:          0

 AVG_CONGESTED_CYCLE: 4

CPU 0 Branch Prediction Accuracy: 97.1012% MPKI: 2.80613 Average ROB Occupancy at Mispredict: 184.218

Branch types
NOT_BRANCH: 903195915 90.3196%
BRANCH_DIRECT_JUMP: 8301505 0.830151%
BRANCH_INDIRECT: 281 2.81e-05%
BRANCH_CONDITIONAL: 66385742 6.63857%
BRANCH_DIRECT_CALL: 11058164 1.10582%
BRANCH_INDIRECT_CALL: 0 0%
BRANCH_RETURN: 11058165 1.10582%
BRANCH_OTHER: 0 0%

