
*** ChampSim Multicore Out-of-Order Simulator ***

Warmup Instructions: 100000000
Simulation Instructions: 1000000000
Number of CPUs: 1
LLC sets: 2048
LLC ways: 16
Off-chip DRAM Size: 4096 MB Channels: 1 Width: 64-bit Data Rate: 3200 MT/s

CPU 0 runs /scratch/user/kevin.weston/dpc3-traces/654.champsimtrace.xz
CPU 0 Bimodal branch predictor
Initialize RRPV
Initialize PRRIP state
Heartbeat CPU 0 instructions: 10000000 cycles: 2987066 heartbeat IPC: 3.34777 cumulative IPC: 3.34777 (Simulation time: 0 hr 0 min 19 sec) 
Heartbeat CPU 0 instructions: 20000003 cycles: 6017316 heartbeat IPC: 3.30006 cumulative IPC: 3.32374 (Simulation time: 0 hr 0 min 39 sec) 
Heartbeat CPU 0 instructions: 30000000 cycles: 8981682 heartbeat IPC: 3.3734 cumulative IPC: 3.34013 (Simulation time: 0 hr 0 min 59 sec) 
Heartbeat CPU 0 instructions: 40000000 cycles: 12020266 heartbeat IPC: 3.29101 cumulative IPC: 3.32771 (Simulation time: 0 hr 1 min 19 sec) 
Heartbeat CPU 0 instructions: 50000003 cycles: 15223910 heartbeat IPC: 3.12145 cumulative IPC: 3.28431 (Simulation time: 0 hr 1 min 40 sec) 
Heartbeat CPU 0 instructions: 60000000 cycles: 18233000 heartbeat IPC: 3.32326 cumulative IPC: 3.29074 (Simulation time: 0 hr 2 min 0 sec) 
Heartbeat CPU 0 instructions: 70000001 cycles: 21221311 heartbeat IPC: 3.34637 cumulative IPC: 3.29857 (Simulation time: 0 hr 2 min 19 sec) 
Heartbeat CPU 0 instructions: 80000001 cycles: 24228321 heartbeat IPC: 3.32556 cumulative IPC: 3.30192 (Simulation time: 0 hr 2 min 39 sec) 
Heartbeat CPU 0 instructions: 90000000 cycles: 27260231 heartbeat IPC: 3.29825 cumulative IPC: 3.30151 (Simulation time: 0 hr 2 min 59 sec) 
Heartbeat CPU 0 instructions: 100000001 cycles: 30210374 heartbeat IPC: 3.38967 cumulative IPC: 3.31012 (Simulation time: 0 hr 3 min 19 sec) 

Warmup complete CPU 0 instructions: 100000001 cycles: 30210374 (Simulation time: 0 hr 3 min 19 sec) 

Heartbeat CPU 0 instructions: 110000000 cycles: 39860234 heartbeat IPC: 1.03628 cumulative IPC: 1.03628 (Simulation time: 0 hr 3 min 33 sec) 
Heartbeat CPU 0 instructions: 120000003 cycles: 49846445 heartbeat IPC: 1.00138 cumulative IPC: 1.01853 (Simulation time: 0 hr 3 min 47 sec) 
Heartbeat CPU 0 instructions: 130000003 cycles: 59949559 heartbeat IPC: 0.989794 cumulative IPC: 1.00877 (Simulation time: 0 hr 4 min 0 sec) 
Heartbeat CPU 0 instructions: 140000000 cycles: 69697993 heartbeat IPC: 1.02581 cumulative IPC: 1.01298 (Simulation time: 0 hr 4 min 14 sec) 
Heartbeat CPU 0 instructions: 150000002 cycles: 79432682 heartbeat IPC: 1.02725 cumulative IPC: 1.0158 (Simulation time: 0 hr 4 min 28 sec) 
Heartbeat CPU 0 instructions: 160000003 cycles: 89429048 heartbeat IPC: 1.00036 cumulative IPC: 1.01319 (Simulation time: 0 hr 4 min 41 sec) 
Heartbeat CPU 0 instructions: 170000000 cycles: 99286311 heartbeat IPC: 1.01448 cumulative IPC: 1.01338 (Simulation time: 0 hr 4 min 55 sec) 
Heartbeat CPU 0 instructions: 180000003 cycles: 108898482 heartbeat IPC: 1.04035 cumulative IPC: 1.01667 (Simulation time: 0 hr 5 min 9 sec) 
Heartbeat CPU 0 instructions: 190000000 cycles: 118651435 heartbeat IPC: 1.02533 cumulative IPC: 1.01763 (Simulation time: 0 hr 5 min 23 sec) 
Heartbeat CPU 0 instructions: 200000003 cycles: 128528535 heartbeat IPC: 1.01244 cumulative IPC: 1.01711 (Simulation time: 0 hr 5 min 37 sec) 
Heartbeat CPU 0 instructions: 210000002 cycles: 138597498 heartbeat IPC: 0.993151 cumulative IPC: 1.01488 (Simulation time: 0 hr 5 min 50 sec) 
Heartbeat CPU 0 instructions: 220000000 cycles: 148370085 heartbeat IPC: 1.02327 cumulative IPC: 1.01557 (Simulation time: 0 hr 6 min 4 sec) 
Heartbeat CPU 0 instructions: 230000001 cycles: 158472402 heartbeat IPC: 0.989872 cumulative IPC: 1.01355 (Simulation time: 0 hr 6 min 17 sec) 
Heartbeat CPU 0 instructions: 240000003 cycles: 168263408 heartbeat IPC: 1.02135 cumulative IPC: 1.0141 (Simulation time: 0 hr 6 min 31 sec) 
Heartbeat CPU 0 instructions: 250000001 cycles: 178090607 heartbeat IPC: 1.01758 cumulative IPC: 1.01433 (Simulation time: 0 hr 6 min 44 sec) 
Heartbeat CPU 0 instructions: 260000002 cycles: 188090043 heartbeat IPC: 1.00006 cumulative IPC: 1.01343 (Simulation time: 0 hr 6 min 58 sec) 
Heartbeat CPU 0 instructions: 270000001 cycles: 197914808 heartbeat IPC: 1.01784 cumulative IPC: 1.01369 (Simulation time: 0 hr 7 min 12 sec) 
Heartbeat CPU 0 instructions: 280000003 cycles: 207842194 heartbeat IPC: 1.00731 cumulative IPC: 1.01333 (Simulation time: 0 hr 7 min 25 sec) 
Heartbeat CPU 0 instructions: 290000000 cycles: 217948714 heartbeat IPC: 0.98946 cumulative IPC: 1.01205 (Simulation time: 0 hr 7 min 38 sec) 
Heartbeat CPU 0 instructions: 300000002 cycles: 227962061 heartbeat IPC: 0.998667 cumulative IPC: 1.01137 (Simulation time: 0 hr 7 min 52 sec) 
Heartbeat CPU 0 instructions: 310000001 cycles: 238104448 heartbeat IPC: 0.985961 cumulative IPC: 1.01013 (Simulation time: 0 hr 8 min 5 sec) 
Heartbeat CPU 0 instructions: 320000002 cycles: 248242554 heartbeat IPC: 0.986378 cumulative IPC: 1.00903 (Simulation time: 0 hr 8 min 18 sec) 
Heartbeat CPU 0 instructions: 330000000 cycles: 258381735 heartbeat IPC: 0.986273 cumulative IPC: 1.00801 (Simulation time: 0 hr 8 min 32 sec) 
Heartbeat CPU 0 instructions: 340000001 cycles: 268388695 heartbeat IPC: 0.999305 cumulative IPC: 1.00765 (Simulation time: 0 hr 8 min 45 sec) 
Heartbeat CPU 0 instructions: 350000001 cycles: 278501327 heartbeat IPC: 0.988862 cumulative IPC: 1.00688 (Simulation time: 0 hr 8 min 58 sec) 
Heartbeat CPU 0 instructions: 360000000 cycles: 288580857 heartbeat IPC: 0.99211 cumulative IPC: 1.00631 (Simulation time: 0 hr 9 min 12 sec) 
Heartbeat CPU 0 instructions: 370000000 cycles: 298621344 heartbeat IPC: 0.995968 cumulative IPC: 1.00592 (Simulation time: 0 hr 9 min 25 sec) 
Heartbeat CPU 0 instructions: 380000002 cycles: 307834411 heartbeat IPC: 1.08542 cumulative IPC: 1.00856 (Simulation time: 0 hr 9 min 40 sec) 
Heartbeat CPU 0 instructions: 390000002 cycles: 317632326 heartbeat IPC: 1.02063 cumulative IPC: 1.00897 (Simulation time: 0 hr 9 min 54 sec) 
Heartbeat CPU 0 instructions: 400000001 cycles: 327677837 heartbeat IPC: 0.995469 cumulative IPC: 1.00851 (Simulation time: 0 hr 10 min 8 sec) 
Heartbeat CPU 0 instructions: 410000002 cycles: 337756730 heartbeat IPC: 0.992173 cumulative IPC: 1.00798 (Simulation time: 0 hr 10 min 21 sec) 
Heartbeat CPU 0 instructions: 420000000 cycles: 347864912 heartbeat IPC: 0.989297 cumulative IPC: 1.00738 (Simulation time: 0 hr 10 min 34 sec) 
Heartbeat CPU 0 instructions: 430000000 cycles: 357341737 heartbeat IPC: 1.05521 cumulative IPC: 1.00877 (Simulation time: 0 hr 10 min 49 sec) 
Heartbeat CPU 0 instructions: 440000000 cycles: 367061369 heartbeat IPC: 1.02885 cumulative IPC: 1.00935 (Simulation time: 0 hr 11 min 3 sec) 
Heartbeat CPU 0 instructions: 450000003 cycles: 375775082 heartbeat IPC: 1.14762 cumulative IPC: 1.01283 (Simulation time: 0 hr 11 min 19 sec) 
Heartbeat CPU 0 instructions: 460000000 cycles: 385851597 heartbeat IPC: 0.992406 cumulative IPC: 1.01226 (Simulation time: 0 hr 11 min 32 sec) 
Heartbeat CPU 0 instructions: 470000002 cycles: 395905039 heartbeat IPC: 0.994684 cumulative IPC: 1.01177 (Simulation time: 0 hr 11 min 46 sec) 
Heartbeat CPU 0 instructions: 480000002 cycles: 405894884 heartbeat IPC: 1.00102 cumulative IPC: 1.01149 (Simulation time: 0 hr 11 min 59 sec) 
Heartbeat CPU 0 instructions: 490000002 cycles: 429517614 heartbeat IPC: 0.423321 cumulative IPC: 0.976692 (Simulation time: 0 hr 12 min 29 sec) 
Heartbeat CPU 0 instructions: 500000000 cycles: 436809302 heartbeat IPC: 1.37142 cumulative IPC: 0.98377 (Simulation time: 0 hr 12 min 54 sec) 
Heartbeat CPU 0 instructions: 510000002 cycles: 443813514 heartbeat IPC: 1.42771 cumulative IPC: 0.991288 (Simulation time: 0 hr 13 min 19 sec) 
Heartbeat CPU 0 instructions: 520000000 cycles: 450956258 heartbeat IPC: 1.40002 cumulative IPC: 0.998227 (Simulation time: 0 hr 13 min 44 sec) 
Heartbeat CPU 0 instructions: 530000000 cycles: 458126920 heartbeat IPC: 1.39457 cumulative IPC: 1.00487 (Simulation time: 0 hr 14 min 9 sec) 
Heartbeat CPU 0 instructions: 540000003 cycles: 465264147 heartbeat IPC: 1.4011 cumulative IPC: 1.01137 (Simulation time: 0 hr 14 min 34 sec) 
Heartbeat CPU 0 instructions: 550000000 cycles: 472407828 heartbeat IPC: 1.39984 cumulative IPC: 1.01764 (Simulation time: 0 hr 14 min 59 sec) 
Heartbeat CPU 0 instructions: 560000000 cycles: 483613932 heartbeat IPC: 0.892371 cumulative IPC: 1.01455 (Simulation time: 0 hr 15 min 27 sec) 
Heartbeat CPU 0 instructions: 570000001 cycles: 505099182 heartbeat IPC: 0.465436 cumulative IPC: 0.989705 (Simulation time: 0 hr 16 min 1 sec) 
Heartbeat CPU 0 instructions: 580000002 cycles: 512129156 heartbeat IPC: 1.42248 cumulative IPC: 0.996018 (Simulation time: 0 hr 16 min 26 sec) 
Heartbeat CPU 0 instructions: 590000000 cycles: 519247605 heartbeat IPC: 1.4048 cumulative IPC: 1.00197 (Simulation time: 0 hr 16 min 51 sec) 
Heartbeat CPU 0 instructions: 600000000 cycles: 526412695 heartbeat IPC: 1.39566 cumulative IPC: 1.00765 (Simulation time: 0 hr 17 min 16 sec) 
Heartbeat CPU 0 instructions: 610000001 cycles: 533551689 heartbeat IPC: 1.40076 cumulative IPC: 1.01323 (Simulation time: 0 hr 17 min 42 sec) 
Heartbeat CPU 0 instructions: 620000001 cycles: 540670428 heartbeat IPC: 1.40474 cumulative IPC: 1.01869 (Simulation time: 0 hr 18 min 7 sec) 
Heartbeat CPU 0 instructions: 630000003 cycles: 547782524 heartbeat IPC: 1.40606 cumulative IPC: 1.02401 (Simulation time: 0 hr 18 min 32 sec) 
Heartbeat CPU 0 instructions: 640000000 cycles: 569964191 heartbeat IPC: 0.450823 cumulative IPC: 1.00046 (Simulation time: 0 hr 19 min 7 sec) 
Heartbeat CPU 0 instructions: 650000000 cycles: 577101794 heartbeat IPC: 1.40103 cumulative IPC: 1.00568 (Simulation time: 0 hr 19 min 32 sec) 
Heartbeat CPU 0 instructions: 660000000 cycles: 584135605 heartbeat IPC: 1.4217 cumulative IPC: 1.01097 (Simulation time: 0 hr 19 min 57 sec) 
Heartbeat CPU 0 instructions: 670000002 cycles: 591316221 heartbeat IPC: 1.39264 cumulative IPC: 1.01585 (Simulation time: 0 hr 20 min 22 sec) 
Heartbeat CPU 0 instructions: 680000002 cycles: 598452635 heartbeat IPC: 1.40126 cumulative IPC: 1.02069 (Simulation time: 0 hr 20 min 47 sec) 
Heartbeat CPU 0 instructions: 690000001 cycles: 605565303 heartbeat IPC: 1.40594 cumulative IPC: 1.02545 (Simulation time: 0 hr 21 min 12 sec) 
Heartbeat CPU 0 instructions: 700000003 cycles: 612708769 heartbeat IPC: 1.39988 cumulative IPC: 1.03005 (Simulation time: 0 hr 21 min 37 sec) 
Heartbeat CPU 0 instructions: 710000001 cycles: 632807551 heartbeat IPC: 0.497543 cumulative IPC: 1.01228 (Simulation time: 0 hr 22 min 11 sec) 
Heartbeat CPU 0 instructions: 720000002 cycles: 642501293 heartbeat IPC: 1.03159 cumulative IPC: 1.01259 (Simulation time: 0 hr 22 min 37 sec) 
Heartbeat CPU 0 instructions: 730000002 cycles: 649500162 heartbeat IPC: 1.4288 cumulative IPC: 1.01729 (Simulation time: 0 hr 23 min 2 sec) 
Heartbeat CPU 0 instructions: 740000002 cycles: 656602570 heartbeat IPC: 1.40797 cumulative IPC: 1.02172 (Simulation time: 0 hr 23 min 27 sec) 
Heartbeat CPU 0 instructions: 750000000 cycles: 663777349 heartbeat IPC: 1.39377 cumulative IPC: 1.02594 (Simulation time: 0 hr 23 min 53 sec) 
Heartbeat CPU 0 instructions: 760000000 cycles: 670913438 heartbeat IPC: 1.40133 cumulative IPC: 1.03012 (Simulation time: 0 hr 24 min 18 sec) 
Heartbeat CPU 0 instructions: 770000000 cycles: 678030964 heartbeat IPC: 1.40498 cumulative IPC: 1.03424 (Simulation time: 0 hr 24 min 43 sec) 
Heartbeat CPU 0 instructions: 780000002 cycles: 685061899 heartbeat IPC: 1.42229 cumulative IPC: 1.0384 (Simulation time: 0 hr 25 min 8 sec) 
Heartbeat CPU 0 instructions: 790000003 cycles: 706874524 heartbeat IPC: 0.45845 cumulative IPC: 1.01971 (Simulation time: 0 hr 25 min 43 sec) 
Heartbeat CPU 0 instructions: 800000000 cycles: 714002981 heartbeat IPC: 1.40283 cumulative IPC: 1.0237 (Simulation time: 0 hr 26 min 8 sec) 
Heartbeat CPU 0 instructions: 810000000 cycles: 721013978 heartbeat IPC: 1.42633 cumulative IPC: 1.02779 (Simulation time: 0 hr 26 min 33 sec) 
Heartbeat CPU 0 instructions: 820000000 cycles: 728174893 heartbeat IPC: 1.39647 cumulative IPC: 1.03157 (Simulation time: 0 hr 26 min 58 sec) 
Heartbeat CPU 0 instructions: 830000002 cycles: 735294833 heartbeat IPC: 1.40451 cumulative IPC: 1.03534 (Simulation time: 0 hr 27 min 23 sec) 
Heartbeat CPU 0 instructions: 840000002 cycles: 742419444 heartbeat IPC: 1.40359 cumulative IPC: 1.03902 (Simulation time: 0 hr 27 min 48 sec) 
Heartbeat CPU 0 instructions: 850000001 cycles: 749578951 heartbeat IPC: 1.39674 cumulative IPC: 1.04258 (Simulation time: 0 hr 28 min 13 sec) 
Heartbeat CPU 0 instructions: 860000000 cycles: 771465318 heartbeat IPC: 0.456905 cumulative IPC: 1.02529 (Simulation time: 0 hr 28 min 47 sec) 
Heartbeat CPU 0 instructions: 870000002 cycles: 778583714 heartbeat IPC: 1.40481 cumulative IPC: 1.0289 (Simulation time: 0 hr 29 min 12 sec) 
Heartbeat CPU 0 instructions: 880000000 cycles: 785601906 heartbeat IPC: 1.42487 cumulative IPC: 1.03258 (Simulation time: 0 hr 29 min 36 sec) 
Heartbeat CPU 0 instructions: 890000002 cycles: 792758932 heartbeat IPC: 1.39723 cumulative IPC: 1.036 (Simulation time: 0 hr 30 min 1 sec) 
Heartbeat CPU 0 instructions: 900000002 cycles: 799933737 heartbeat IPC: 1.39377 cumulative IPC: 1.03933 (Simulation time: 0 hr 30 min 26 sec) 
Heartbeat CPU 0 instructions: 910000000 cycles: 807022264 heartbeat IPC: 1.41073 cumulative IPC: 1.04272 (Simulation time: 0 hr 30 min 51 sec) 
Heartbeat CPU 0 instructions: 920000001 cycles: 814150571 heartbeat IPC: 1.40286 cumulative IPC: 1.046 (Simulation time: 0 hr 31 min 16 sec) 
Heartbeat CPU 0 instructions: 930000003 cycles: 821162334 heartbeat IPC: 1.42618 cumulative IPC: 1.04937 (Simulation time: 0 hr 31 min 41 sec) 
Heartbeat CPU 0 instructions: 940000000 cycles: 843363544 heartbeat IPC: 0.450426 cumulative IPC: 1.03302 (Simulation time: 0 hr 32 min 15 sec) 
Heartbeat CPU 0 instructions: 950000000 cycles: 850424776 heartbeat IPC: 1.41618 cumulative IPC: 1.03631 (Simulation time: 0 hr 32 min 40 sec) 
Heartbeat CPU 0 instructions: 960000001 cycles: 857479608 heartbeat IPC: 1.41747 cumulative IPC: 1.03956 (Simulation time: 0 hr 33 min 5 sec) 
Heartbeat CPU 0 instructions: 970000000 cycles: 864656082 heartbeat IPC: 1.39344 cumulative IPC: 1.04261 (Simulation time: 0 hr 33 min 30 sec) 
Heartbeat CPU 0 instructions: 980000001 cycles: 871786847 heartbeat IPC: 1.40237 cumulative IPC: 1.04566 (Simulation time: 0 hr 33 min 55 sec) 
Heartbeat CPU 0 instructions: 990000000 cycles: 878911802 heartbeat IPC: 1.40352 cumulative IPC: 1.04866 (Simulation time: 0 hr 34 min 19 sec) 
Heartbeat CPU 0 instructions: 1000000003 cycles: 886037129 heartbeat IPC: 1.40344 cumulative IPC: 1.05161 (Simulation time: 0 hr 34 min 44 sec) 
Heartbeat CPU 0 instructions: 1010000000 cycles: 908168724 heartbeat IPC: 0.451843 cumulative IPC: 1.0365 (Simulation time: 0 hr 35 min 18 sec) 
Heartbeat CPU 0 instructions: 1020000002 cycles: 915260249 heartbeat IPC: 1.41013 cumulative IPC: 1.03949 (Simulation time: 0 hr 35 min 43 sec) 
Heartbeat CPU 0 instructions: 1030000000 cycles: 922288293 heartbeat IPC: 1.42287 cumulative IPC: 1.04251 (Simulation time: 0 hr 36 min 8 sec) 
Heartbeat CPU 0 instructions: 1040000000 cycles: 929443936 heartbeat IPC: 1.3975 cumulative IPC: 1.04533 (Simulation time: 0 hr 36 min 33 sec) 
Heartbeat CPU 0 instructions: 1050000001 cycles: 936602382 heartbeat IPC: 1.39695 cumulative IPC: 1.04811 (Simulation time: 0 hr 36 min 58 sec) 
Heartbeat CPU 0 instructions: 1060000000 cycles: 943697135 heartbeat IPC: 1.40949 cumulative IPC: 1.05092 (Simulation time: 0 hr 37 min 23 sec) 
Heartbeat CPU 0 instructions: 1070000001 cycles: 950835241 heartbeat IPC: 1.40093 cumulative IPC: 1.05363 (Simulation time: 0 hr 37 min 48 sec) 
Heartbeat CPU 0 instructions: 1080000002 cycles: 966905609 heartbeat IPC: 0.622263 cumulative IPC: 1.04623 (Simulation time: 0 hr 38 min 19 sec) 
Heartbeat CPU 0 instructions: 1090000001 cycles: 979328115 heartbeat IPC: 0.80499 cumulative IPC: 1.04307 (Simulation time: 0 hr 38 min 47 sec) 
Heartbeat CPU 0 instructions: 1100000000 cycles: 986327892 heartbeat IPC: 1.42862 cumulative IPC: 1.0459 (Simulation time: 0 hr 39 min 12 sec) 
Finished CPU 0 instructions: 1000000000 cycles: 956117519 cumulative IPC: 1.0459 (Simulation time: 0 hr 39 min 12 sec) 

ChampSim completed all CPUs

Region of Interest Statistics

CPU 0 cumulative IPC: 1.0459 instructions: 1000000000 cycles: 956117519
L1D TOTAL     ACCESS:  226339355  HIT:  224100221  MISS:    2239134
L1D LOAD      ACCESS:  138085153  HIT:  136740658  MISS:    1344495
L1D RFO       ACCESS:   88254202  HIT:   87359563  MISS:     894639
L1D PREFETCH  ACCESS:          0  HIT:          0  MISS:          0
L1D WRITEBACK ACCESS:          0  HIT:          0  MISS:          0
L1D PREFETCH  REQUESTED:          0  ISSUED:          0  USEFUL:          0  USELESS:          0
L1D AVERAGE MISS LATENCY: 213.016 cycles
L1I TOTAL     ACCESS:  188907723  HIT:  188907652  MISS:         71
L1I LOAD      ACCESS:  188907723  HIT:  188907652  MISS:         71
L1I RFO       ACCESS:          0  HIT:          0  MISS:          0
L1I PREFETCH  ACCESS:          0  HIT:          0  MISS:          0
L1I WRITEBACK ACCESS:          0  HIT:          0  MISS:          0
L1I PREFETCH  REQUESTED:          0  ISSUED:          0  USEFUL:          0  USELESS:          0
L1I AVERAGE MISS LATENCY: 198.127 cycles
L2C TOTAL     ACCESS:    3133937  HIT:     893612  MISS:    2240325
L2C LOAD      ACCESS:    1344566  HIT:        199  MISS:    1344367
L2C RFO       ACCESS:     894639  HIT:        506  MISS:     894133
L2C PREFETCH  ACCESS:          0  HIT:          0  MISS:          0
L2C WRITEBACK ACCESS:     894732  HIT:     892907  MISS:       1825
L2C PREFETCH  REQUESTED:          0  ISSUED:          0  USEFUL:          0  USELESS:          0
L2C AVERAGE MISS LATENCY: 197.422 cycles
LLC TOTAL     ACCESS:    3133178  HIT:     278391  MISS:    2854787
LLC LOAD      ACCESS:    1344367  HIT:      93118  MISS:    1251249
LLC RFO       ACCESS:     894133  HIT:      36562  MISS:     857571
LLC PREFETCH  ACCESS:          0  HIT:          0  MISS:          0
LLC WRITEBACK ACCESS:     894678  HIT:     148711  MISS:     745967
LLC PREFETCH  REQUESTED:          0  ISSUED:          0  USEFUL:          0  USELESS:          0
LLC AVERAGE MISS LATENCY: 131.102 cycles
Major fault: 0 Minor fault: 16776
==============================
Perceptron RRIP Stats:
   Num Updates: 3122449
   Num Trains:  127856
==============================
perceptron #0: -5 -7 -1 3 -3 3 3 5 5 1 -3 -1 -1 1 5 -7 1 -1 -5 9 -17 

perceptron #1: -5 -1 1 -3 1 3 1 5 3 -1 -3 -3 5 5 3 -3 1 1 1 13 -23 

perceptron #2: -2 -6 4 2 0 6 4 8 6 2 2 0 2 4 0 0 2 0 -2 12 -20 

perceptron #3: -4 -4 0 -2 0 6 6 4 4 0 -6 -2 2 0 4 -2 0 2 -10 10 -22 

perceptron #4: 0 -6 0 -2 2 6 6 6 2 -2 -4 0 0 -4 2 0 0 -2 -6 12 -24 

perceptron #5: -2 -2 0 2 -2 4 0 2 6 4 -6 0 0 2 4 2 4 0 -2 8 -20 

perceptron #6: -2 -4 0 0 0 8 4 8 4 0 -4 0 0 2 2 0 4 6 -2 6 -24 

perceptron #7: -1 -1 1 1 -1 5 3 1 3 1 -3 -1 1 -1 3 -1 5 5 -5 9 -21 

perceptron #8: -1 -3 3 -1 -3 5 1 5 3 1 -1 1 -3 3 1 -5 -1 3 -3 5 -23 

perceptron #9: -1 1 3 1 3 7 3 5 5 -1 3 7 1 1 -1 -5 1 3 1 13 -23 

perceptron #10: -6 -2 0 -2 6 2 2 2 2 2 0 2 2 2 2 -2 4 0 4 10 -22 

perceptron #11: -1 1 -1 1 1 7 3 7 3 -3 -3 1 3 -1 7 -1 -3 -1 -5 3 -23 

perceptron #12: 1 3 3 5 -3 1 1 3 5 9 -5 -1 -5 -3 7 -5 1 -1 -5 7 -29 

perceptron #13: -3 -1 1 1 -1 5 -1 5 5 5 -1 3 -3 1 -3 -3 -1 1 -3 3 -29 

perceptron #14: 1 -5 1 -1 1 5 3 1 3 -1 -3 3 -7 -3 1 -3 1 -1 3 1 -25 

perceptron #15: -2 -2 0 0 2 2 2 8 2 2 2 0 2 4 -2 0 0 4 4 -2 -22 

perceptron #16: 0 -4 -4 -4 4 10 0 2 2 -4 2 2 -4 -8 6 2 -2 4 0 0 -20 

perceptron #17: -4 -4 0 -2 2 8 4 6 2 4 -4 0 4 -6 2 -4 2 0 10 -6 -24 

perceptron #18: -1 -1 -1 -1 1 5 3 5 3 1 -1 -1 3 -1 3 5 5 5 9 -3 -23 

perceptron #19: -3 -5 -5 3 -1 11 3 9 5 -1 5 -1 1 1 1 -3 3 3 9 -5 -17 

perceptron #20: -1 -5 -1 1 -1 9 1 9 9 -3 3 3 5 5 1 -1 1 7 9 3 -21 

perceptron #21: -4 -4 0 4 -2 10 2 8 2 0 -4 -4 2 -4 6 0 2 6 4 -2 -24 

perceptron #22: -2 -2 4 2 -2 6 0 6 2 0 2 0 2 6 -4 -2 0 4 8 2 -20 

perceptron #23: -2 0 2 2 0 6 -2 2 4 0 -2 0 0 2 6 4 -2 4 6 -2 -28 

perceptron #24: -1 1 3 1 -5 7 7 3 3 3 -3 -3 1 -1 1 -1 3 1 13 -3 -21 

perceptron #25: -3 -5 -1 1 -1 1 -1 7 7 3 -7 -3 3 5 1 -1 1 1 13 -1 -25 

perceptron #26: -1 3 1 -1 3 1 5 7 3 -1 -1 3 1 5 -1 1 -1 -1 9 1 -19 

perceptron #27: -1 -1 1 -1 -1 7 1 3 1 1 1 -1 3 3 11 1 -1 -1 3 -5 -19 

perceptron #28: -3 1 -1 -3 -3 1 3 11 3 1 -5 -3 -1 1 -1 3 3 -1 7 -5 -21 

perceptron #29: 0 -2 2 0 0 6 2 8 4 2 0 -2 4 -2 2 0 4 0 10 -6 -20 

perceptron #30: 0 -4 2 0 2 8 0 6 0 0 -2 0 2 2 6 -4 -2 2 8 -8 -18 

perceptron #31: 1 -5 -1 1 -1 5 -1 1 -1 1 -5 1 -1 -1 -1 1 1 -3 11 -1 -21 


DRAM Statistics
 CHANNEL 0
 RQ ROW_BUFFER_HIT:     398722  ROW_BUFFER_MISS:    1710019
 DBUS_CONGESTED:     582593
 WQ ROW_BUFFER_HIT:     411824  ROW_BUFFER_MISS:     422161  FULL:          0

 AVG_CONGESTED_CYCLE: 6

CPU 0 Branch Prediction Accuracy: 91.4265% MPKI: 10.8386 Average ROB Occupancy at Mispredict: 18.0486

Branch types
NOT_BRANCH: 873580547 87.3581%
BRANCH_DIRECT_JUMP: 10632506 1.06325%
BRANCH_INDIRECT: 238987 0.0238987%
BRANCH_CONDITIONAL: 92907925 9.29079%
BRANCH_DIRECT_CALL: 11320021 1.132%
BRANCH_INDIRECT_CALL: 0 0%
BRANCH_RETURN: 11320025 1.132%
BRANCH_OTHER: 0 0%

