
*** ChampSim Multicore Out-of-Order Simulator ***

Warmup Instructions: 100000000
Simulation Instructions: 1000000000
Number of CPUs: 1
LLC sets: 2048
LLC ways: 16
Off-chip DRAM Size: 4096 MB Channels: 1 Width: 64-bit Data Rate: 3200 MT/s

CPU 0 runs /scratch/user/kevin.weston/dpc3-traces/657.champsimtrace.xz
CPU 0 Bimodal branch predictor
Initialize RRPV
Initialize PRRIP state
Heartbeat CPU 0 instructions: 10000003 cycles: 3242077 heartbeat IPC: 3.08444 cumulative IPC: 3.08444 (Simulation time: 0 hr 0 min 21 sec) 
Heartbeat CPU 0 instructions: 20000003 cycles: 6523705 heartbeat IPC: 3.04727 cumulative IPC: 3.06574 (Simulation time: 0 hr 0 min 42 sec) 
Heartbeat CPU 0 instructions: 30000001 cycles: 9796913 heartbeat IPC: 3.05511 cumulative IPC: 3.06219 (Simulation time: 0 hr 1 min 3 sec) 
Heartbeat CPU 0 instructions: 40000000 cycles: 13048200 heartbeat IPC: 3.0757 cumulative IPC: 3.06556 (Simulation time: 0 hr 1 min 24 sec) 
Heartbeat CPU 0 instructions: 50000001 cycles: 16301220 heartbeat IPC: 3.07407 cumulative IPC: 3.06726 (Simulation time: 0 hr 1 min 44 sec) 
Heartbeat CPU 0 instructions: 60000000 cycles: 19550102 heartbeat IPC: 3.07798 cumulative IPC: 3.06904 (Simulation time: 0 hr 2 min 5 sec) 
Heartbeat CPU 0 instructions: 70000000 cycles: 22781805 heartbeat IPC: 3.09434 cumulative IPC: 3.07263 (Simulation time: 0 hr 2 min 26 sec) 
Heartbeat CPU 0 instructions: 80000001 cycles: 26033840 heartbeat IPC: 3.075 cumulative IPC: 3.07292 (Simulation time: 0 hr 2 min 47 sec) 
Heartbeat CPU 0 instructions: 90000002 cycles: 29318838 heartbeat IPC: 3.04414 cumulative IPC: 3.0697 (Simulation time: 0 hr 3 min 8 sec) 
Heartbeat CPU 0 instructions: 100000003 cycles: 32598279 heartbeat IPC: 3.0493 cumulative IPC: 3.06765 (Simulation time: 0 hr 3 min 28 sec) 

Warmup complete CPU 0 instructions: 100000003 cycles: 32598279 (Simulation time: 0 hr 3 min 28 sec) 

Heartbeat CPU 0 instructions: 110000000 cycles: 42263816 heartbeat IPC: 1.0346 cumulative IPC: 1.0346 (Simulation time: 0 hr 3 min 42 sec) 
Heartbeat CPU 0 instructions: 120000000 cycles: 51301366 heartbeat IPC: 1.10649 cumulative IPC: 1.06934 (Simulation time: 0 hr 3 min 55 sec) 
Heartbeat CPU 0 instructions: 130000003 cycles: 59551572 heartbeat IPC: 1.21209 cumulative IPC: 1.11304 (Simulation time: 0 hr 4 min 8 sec) 
Heartbeat CPU 0 instructions: 140000001 cycles: 68641472 heartbeat IPC: 1.10012 cumulative IPC: 1.10978 (Simulation time: 0 hr 4 min 22 sec) 
Heartbeat CPU 0 instructions: 150000000 cycles: 76931281 heartbeat IPC: 1.2063 cumulative IPC: 1.12783 (Simulation time: 0 hr 4 min 34 sec) 
Heartbeat CPU 0 instructions: 160000000 cycles: 85004288 heartbeat IPC: 1.2387 cumulative IPC: 1.14491 (Simulation time: 0 hr 4 min 47 sec) 
Heartbeat CPU 0 instructions: 170000001 cycles: 94628775 heartbeat IPC: 1.03902 cumulative IPC: 1.12848 (Simulation time: 0 hr 5 min 1 sec) 
Heartbeat CPU 0 instructions: 180000001 cycles: 106004039 heartbeat IPC: 0.879101 cumulative IPC: 1.08983 (Simulation time: 0 hr 5 min 15 sec) 
Heartbeat CPU 0 instructions: 190000002 cycles: 118962387 heartbeat IPC: 0.771703 cumulative IPC: 1.0421 (Simulation time: 0 hr 5 min 31 sec) 
Heartbeat CPU 0 instructions: 200000000 cycles: 131073250 heartbeat IPC: 0.825705 cumulative IPC: 1.01549 (Simulation time: 0 hr 5 min 46 sec) 
Heartbeat CPU 0 instructions: 210000001 cycles: 142939512 heartbeat IPC: 0.842725 cumulative IPC: 0.996907 (Simulation time: 0 hr 6 min 1 sec) 
Heartbeat CPU 0 instructions: 220000000 cycles: 153705583 heartbeat IPC: 0.928844 cumulative IPC: 0.990857 (Simulation time: 0 hr 6 min 16 sec) 
Heartbeat CPU 0 instructions: 230000002 cycles: 163487670 heartbeat IPC: 1.02228 cumulative IPC: 0.993205 (Simulation time: 0 hr 6 min 29 sec) 
Heartbeat CPU 0 instructions: 240000001 cycles: 173296564 heartbeat IPC: 1.01948 cumulative IPC: 0.995037 (Simulation time: 0 hr 6 min 43 sec) 
Heartbeat CPU 0 instructions: 250000003 cycles: 182504846 heartbeat IPC: 1.08598 cumulative IPC: 1.00062 (Simulation time: 0 hr 6 min 56 sec) 
Heartbeat CPU 0 instructions: 260000002 cycles: 191009633 heartbeat IPC: 1.17581 cumulative IPC: 1.01003 (Simulation time: 0 hr 7 min 9 sec) 
Heartbeat CPU 0 instructions: 270000000 cycles: 199254339 heartbeat IPC: 1.2129 cumulative IPC: 1.02006 (Simulation time: 0 hr 7 min 22 sec) 
Heartbeat CPU 0 instructions: 280000000 cycles: 210470328 heartbeat IPC: 0.891584 cumulative IPC: 1.01196 (Simulation time: 0 hr 7 min 36 sec) 
Heartbeat CPU 0 instructions: 290000002 cycles: 220178210 heartbeat IPC: 1.03009 cumulative IPC: 1.0129 (Simulation time: 0 hr 7 min 50 sec) 
Heartbeat CPU 0 instructions: 300000002 cycles: 229165291 heartbeat IPC: 1.11271 cumulative IPC: 1.01746 (Simulation time: 0 hr 8 min 3 sec) 
Heartbeat CPU 0 instructions: 310000001 cycles: 238020409 heartbeat IPC: 1.12929 cumulative IPC: 1.02229 (Simulation time: 0 hr 8 min 16 sec) 
Heartbeat CPU 0 instructions: 320000003 cycles: 247921688 heartbeat IPC: 1.00997 cumulative IPC: 1.02172 (Simulation time: 0 hr 8 min 31 sec) 
Heartbeat CPU 0 instructions: 330000000 cycles: 256703194 heartbeat IPC: 1.13876 cumulative IPC: 1.0263 (Simulation time: 0 hr 8 min 44 sec) 
Heartbeat CPU 0 instructions: 340000002 cycles: 266842768 heartbeat IPC: 0.986235 cumulative IPC: 1.02457 (Simulation time: 0 hr 8 min 57 sec) 
Heartbeat CPU 0 instructions: 350000001 cycles: 277590644 heartbeat IPC: 0.930416 cumulative IPC: 1.02044 (Simulation time: 0 hr 9 min 11 sec) 
Heartbeat CPU 0 instructions: 360000000 cycles: 288501238 heartbeat IPC: 0.91654 cumulative IPC: 1.01601 (Simulation time: 0 hr 9 min 26 sec) 
Heartbeat CPU 0 instructions: 370000002 cycles: 298414004 heartbeat IPC: 1.0088 cumulative IPC: 1.01574 (Simulation time: 0 hr 9 min 39 sec) 
Heartbeat CPU 0 instructions: 380000003 cycles: 307847739 heartbeat IPC: 1.06003 cumulative IPC: 1.01726 (Simulation time: 0 hr 9 min 52 sec) 
Heartbeat CPU 0 instructions: 390000002 cycles: 318838182 heartbeat IPC: 0.909881 cumulative IPC: 1.01314 (Simulation time: 0 hr 10 min 7 sec) 
Heartbeat CPU 0 instructions: 400000000 cycles: 329341991 heartbeat IPC: 0.952035 cumulative IPC: 1.01097 (Simulation time: 0 hr 10 min 20 sec) 
Heartbeat CPU 0 instructions: 410000000 cycles: 340167513 heartbeat IPC: 0.923743 cumulative IPC: 1.0079 (Simulation time: 0 hr 10 min 35 sec) 
Heartbeat CPU 0 instructions: 420000000 cycles: 351234958 heartbeat IPC: 0.903551 cumulative IPC: 1.00428 (Simulation time: 0 hr 10 min 49 sec) 
Heartbeat CPU 0 instructions: 430000001 cycles: 361291485 heartbeat IPC: 0.994379 cumulative IPC: 1.00398 (Simulation time: 0 hr 11 min 4 sec) 
Heartbeat CPU 0 instructions: 440000000 cycles: 371402410 heartbeat IPC: 0.989029 cumulative IPC: 1.00353 (Simulation time: 0 hr 11 min 19 sec) 
Heartbeat CPU 0 instructions: 450000003 cycles: 381507939 heartbeat IPC: 0.989558 cumulative IPC: 1.00312 (Simulation time: 0 hr 11 min 34 sec) 
Heartbeat CPU 0 instructions: 460000003 cycles: 391450867 heartbeat IPC: 1.00574 cumulative IPC: 1.0032 (Simulation time: 0 hr 11 min 50 sec) 
Heartbeat CPU 0 instructions: 470000002 cycles: 401325027 heartbeat IPC: 1.01274 cumulative IPC: 1.00345 (Simulation time: 0 hr 12 min 4 sec) 
Heartbeat CPU 0 instructions: 480000001 cycles: 410576714 heartbeat IPC: 1.08088 cumulative IPC: 1.00535 (Simulation time: 0 hr 12 min 17 sec) 
Heartbeat CPU 0 instructions: 490000002 cycles: 419604102 heartbeat IPC: 1.10774 cumulative IPC: 1.00774 (Simulation time: 0 hr 12 min 31 sec) 
Heartbeat CPU 0 instructions: 500000002 cycles: 429205369 heartbeat IPC: 1.04153 cumulative IPC: 1.00855 (Simulation time: 0 hr 12 min 45 sec) 
Heartbeat CPU 0 instructions: 510000000 cycles: 442572813 heartbeat IPC: 0.748086 cumulative IPC: 1.00006 (Simulation time: 0 hr 13 min 3 sec) 
Heartbeat CPU 0 instructions: 520000002 cycles: 452433657 heartbeat IPC: 1.01411 cumulative IPC: 1.00039 (Simulation time: 0 hr 13 min 18 sec) 
Heartbeat CPU 0 instructions: 530000001 cycles: 462012242 heartbeat IPC: 1.044 cumulative IPC: 1.00136 (Simulation time: 0 hr 13 min 32 sec) 
Heartbeat CPU 0 instructions: 540000001 cycles: 471308016 heartbeat IPC: 1.07576 cumulative IPC: 1.00294 (Simulation time: 0 hr 13 min 46 sec) 
Heartbeat CPU 0 instructions: 550000000 cycles: 483128699 heartbeat IPC: 0.845975 cumulative IPC: 0.998823 (Simulation time: 0 hr 14 min 1 sec) 
Heartbeat CPU 0 instructions: 560000002 cycles: 492831745 heartbeat IPC: 1.0306 cumulative IPC: 0.999493 (Simulation time: 0 hr 14 min 15 sec) 
Heartbeat CPU 0 instructions: 570000002 cycles: 502620977 heartbeat IPC: 1.02153 cumulative IPC: 0.999952 (Simulation time: 0 hr 14 min 29 sec) 
Heartbeat CPU 0 instructions: 580000002 cycles: 512242574 heartbeat IPC: 1.03933 cumulative IPC: 1.00074 (Simulation time: 0 hr 14 min 43 sec) 
Heartbeat CPU 0 instructions: 590000000 cycles: 522004721 heartbeat IPC: 1.02436 cumulative IPC: 1.00121 (Simulation time: 0 hr 14 min 57 sec) 
Heartbeat CPU 0 instructions: 600000002 cycles: 531963299 heartbeat IPC: 1.00416 cumulative IPC: 1.00127 (Simulation time: 0 hr 15 min 10 sec) 
Heartbeat CPU 0 instructions: 610000003 cycles: 541868862 heartbeat IPC: 1.00953 cumulative IPC: 1.00143 (Simulation time: 0 hr 15 min 24 sec) 
Heartbeat CPU 0 instructions: 620000000 cycles: 551189873 heartbeat IPC: 1.07284 cumulative IPC: 1.00272 (Simulation time: 0 hr 15 min 38 sec) 
Heartbeat CPU 0 instructions: 630000000 cycles: 560894345 heartbeat IPC: 1.03045 cumulative IPC: 1.00323 (Simulation time: 0 hr 15 min 52 sec) 
Heartbeat CPU 0 instructions: 640000002 cycles: 570639961 heartbeat IPC: 1.0261 cumulative IPC: 1.00364 (Simulation time: 0 hr 16 min 6 sec) 
Heartbeat CPU 0 instructions: 650000001 cycles: 579728310 heartbeat IPC: 1.10031 cumulative IPC: 1.00525 (Simulation time: 0 hr 16 min 19 sec) 
Heartbeat CPU 0 instructions: 660000000 cycles: 589630816 heartbeat IPC: 1.00985 cumulative IPC: 1.00533 (Simulation time: 0 hr 16 min 33 sec) 
Heartbeat CPU 0 instructions: 670000000 cycles: 599702109 heartbeat IPC: 0.992921 cumulative IPC: 1.00511 (Simulation time: 0 hr 16 min 47 sec) 
Heartbeat CPU 0 instructions: 680000003 cycles: 608829986 heartbeat IPC: 1.09555 cumulative IPC: 1.00654 (Simulation time: 0 hr 17 min 0 sec) 
Heartbeat CPU 0 instructions: 690000000 cycles: 619383926 heartbeat IPC: 0.947513 cumulative IPC: 1.00548 (Simulation time: 0 hr 17 min 15 sec) 
Heartbeat CPU 0 instructions: 700000001 cycles: 629036714 heartbeat IPC: 1.03597 cumulative IPC: 1.00597 (Simulation time: 0 hr 17 min 29 sec) 
Heartbeat CPU 0 instructions: 710000001 cycles: 639082857 heartbeat IPC: 0.995407 cumulative IPC: 1.0058 (Simulation time: 0 hr 17 min 44 sec) 
Heartbeat CPU 0 instructions: 720000001 cycles: 649039494 heartbeat IPC: 1.00436 cumulative IPC: 1.00577 (Simulation time: 0 hr 17 min 59 sec) 
Heartbeat CPU 0 instructions: 730000003 cycles: 658533808 heartbeat IPC: 1.05326 cumulative IPC: 1.00649 (Simulation time: 0 hr 18 min 13 sec) 
Heartbeat CPU 0 instructions: 740000001 cycles: 668395389 heartbeat IPC: 1.01404 cumulative IPC: 1.00661 (Simulation time: 0 hr 18 min 28 sec) 
Heartbeat CPU 0 instructions: 750000000 cycles: 676829745 heartbeat IPC: 1.18563 cumulative IPC: 1.00895 (Simulation time: 0 hr 18 min 41 sec) 
Heartbeat CPU 0 instructions: 760000000 cycles: 684929293 heartbeat IPC: 1.23464 cumulative IPC: 1.01176 (Simulation time: 0 hr 18 min 54 sec) 
Heartbeat CPU 0 instructions: 770000000 cycles: 693062246 heartbeat IPC: 1.22957 cumulative IPC: 1.01444 (Simulation time: 0 hr 19 min 6 sec) 
Heartbeat CPU 0 instructions: 780000001 cycles: 701086748 heartbeat IPC: 1.24618 cumulative IPC: 1.01722 (Simulation time: 0 hr 19 min 19 sec) 
Heartbeat CPU 0 instructions: 790000001 cycles: 709249455 heartbeat IPC: 1.22508 cumulative IPC: 1.01973 (Simulation time: 0 hr 19 min 32 sec) 
Heartbeat CPU 0 instructions: 800000001 cycles: 717382979 heartbeat IPC: 1.22948 cumulative IPC: 1.02222 (Simulation time: 0 hr 19 min 45 sec) 
Heartbeat CPU 0 instructions: 810000000 cycles: 725532821 heartbeat IPC: 1.22702 cumulative IPC: 1.02463 (Simulation time: 0 hr 19 min 58 sec) 
Heartbeat CPU 0 instructions: 820000001 cycles: 733592521 heartbeat IPC: 1.24074 cumulative IPC: 1.02711 (Simulation time: 0 hr 20 min 11 sec) 
Heartbeat CPU 0 instructions: 830000000 cycles: 741907153 heartbeat IPC: 1.2027 cumulative IPC: 1.02917 (Simulation time: 0 hr 20 min 24 sec) 
Heartbeat CPU 0 instructions: 840000001 cycles: 749910996 heartbeat IPC: 1.2494 cumulative IPC: 1.03163 (Simulation time: 0 hr 20 min 36 sec) 
Heartbeat CPU 0 instructions: 850000003 cycles: 758173054 heartbeat IPC: 1.21035 cumulative IPC: 1.03366 (Simulation time: 0 hr 20 min 49 sec) 
Heartbeat CPU 0 instructions: 860000003 cycles: 766297428 heartbeat IPC: 1.23086 cumulative IPC: 1.03585 (Simulation time: 0 hr 21 min 2 sec) 
Heartbeat CPU 0 instructions: 870000003 cycles: 774505893 heartbeat IPC: 1.21825 cumulative IPC: 1.03787 (Simulation time: 0 hr 21 min 15 sec) 
Heartbeat CPU 0 instructions: 880000000 cycles: 782589343 heartbeat IPC: 1.2371 cumulative IPC: 1.04001 (Simulation time: 0 hr 21 min 28 sec) 
Heartbeat CPU 0 instructions: 890000003 cycles: 790649492 heartbeat IPC: 1.24067 cumulative IPC: 1.04215 (Simulation time: 0 hr 21 min 41 sec) 
Heartbeat CPU 0 instructions: 900000000 cycles: 798822467 heartbeat IPC: 1.22354 cumulative IPC: 1.04408 (Simulation time: 0 hr 21 min 54 sec) 
Heartbeat CPU 0 instructions: 910000002 cycles: 806985271 heartbeat IPC: 1.22507 cumulative IPC: 1.04599 (Simulation time: 0 hr 22 min 7 sec) 
Heartbeat CPU 0 instructions: 920000001 cycles: 815173060 heartbeat IPC: 1.22133 cumulative IPC: 1.04782 (Simulation time: 0 hr 22 min 19 sec) 
Heartbeat CPU 0 instructions: 930000000 cycles: 824581019 heartbeat IPC: 1.06293 cumulative IPC: 1.048 (Simulation time: 0 hr 22 min 33 sec) 
Heartbeat CPU 0 instructions: 940000000 cycles: 834745924 heartbeat IPC: 0.983777 cumulative IPC: 1.04719 (Simulation time: 0 hr 22 min 47 sec) 
Heartbeat CPU 0 instructions: 950000000 cycles: 845907383 heartbeat IPC: 0.89594 cumulative IPC: 1.04511 (Simulation time: 0 hr 23 min 2 sec) 
Heartbeat CPU 0 instructions: 960000002 cycles: 854563708 heartbeat IPC: 1.15522 cumulative IPC: 1.04627 (Simulation time: 0 hr 23 min 15 sec) 
Heartbeat CPU 0 instructions: 970000002 cycles: 863934426 heartbeat IPC: 1.06715 cumulative IPC: 1.04651 (Simulation time: 0 hr 23 min 28 sec) 
Heartbeat CPU 0 instructions: 980000000 cycles: 875830133 heartbeat IPC: 0.840639 cumulative IPC: 1.0436 (Simulation time: 0 hr 23 min 43 sec) 
Heartbeat CPU 0 instructions: 990000000 cycles: 888201798 heartbeat IPC: 0.808299 cumulative IPC: 1.0402 (Simulation time: 0 hr 23 min 59 sec) 
Heartbeat CPU 0 instructions: 1000000002 cycles: 898196407 heartbeat IPC: 1.00054 cumulative IPC: 1.03974 (Simulation time: 0 hr 24 min 13 sec) 
Heartbeat CPU 0 instructions: 1010000003 cycles: 907596824 heartbeat IPC: 1.06378 cumulative IPC: 1.04 (Simulation time: 0 hr 24 min 26 sec) 
Heartbeat CPU 0 instructions: 1020000000 cycles: 920395556 heartbeat IPC: 0.781327 cumulative IPC: 1.03627 (Simulation time: 0 hr 24 min 42 sec) 
Heartbeat CPU 0 instructions: 1030000000 cycles: 934686172 heartbeat IPC: 0.69976 cumulative IPC: 1.03094 (Simulation time: 0 hr 24 min 58 sec) 
Heartbeat CPU 0 instructions: 1040000002 cycles: 949833784 heartbeat IPC: 0.66017 cumulative IPC: 1.02482 (Simulation time: 0 hr 25 min 14 sec) 
Heartbeat CPU 0 instructions: 1050000000 cycles: 963660059 heartbeat IPC: 0.72326 cumulative IPC: 1.02034 (Simulation time: 0 hr 25 min 30 sec) 
Heartbeat CPU 0 instructions: 1060000002 cycles: 975396645 heartbeat IPC: 0.852037 cumulative IPC: 1.01825 (Simulation time: 0 hr 25 min 45 sec) 
Heartbeat CPU 0 instructions: 1070000001 cycles: 984649872 heartbeat IPC: 1.0807 cumulative IPC: 1.01885 (Simulation time: 0 hr 25 min 58 sec) 
Heartbeat CPU 0 instructions: 1080000002 cycles: 993300828 heartbeat IPC: 1.15594 cumulative IPC: 1.02009 (Simulation time: 0 hr 26 min 11 sec) 
Heartbeat CPU 0 instructions: 1090000001 cycles: 1004721753 heartbeat IPC: 0.875586 cumulative IPC: 1.01839 (Simulation time: 0 hr 26 min 26 sec) 
Heartbeat CPU 0 instructions: 1100000000 cycles: 1015866416 heartbeat IPC: 0.89729 cumulative IPC: 1.01702 (Simulation time: 0 hr 26 min 41 sec) 
Finished CPU 0 instructions: 1000000002 cycles: 983268151 cumulative IPC: 1.01702 (Simulation time: 0 hr 26 min 41 sec) 

ChampSim completed all CPUs

Region of Interest Statistics

CPU 0 cumulative IPC: 1.01702 instructions: 1000000002 cycles: 983268151
L1D TOTAL     ACCESS:  215903086  HIT:  210794001  MISS:    5109085
L1D LOAD      ACCESS:  152655953  HIT:  148827003  MISS:    3828950
L1D RFO       ACCESS:   63247133  HIT:   61966998  MISS:    1280135
L1D PREFETCH  ACCESS:          0  HIT:          0  MISS:          0
L1D WRITEBACK ACCESS:          0  HIT:          0  MISS:          0
L1D PREFETCH  REQUESTED:          0  ISSUED:          0  USEFUL:          0  USELESS:          0
L1D AVERAGE MISS LATENCY: 74.4656 cycles
L1I TOTAL     ACCESS:  165384740  HIT:  165381450  MISS:       3290
L1I LOAD      ACCESS:  165384740  HIT:  165381450  MISS:       3290
L1I RFO       ACCESS:          0  HIT:          0  MISS:          0
L1I PREFETCH  ACCESS:          0  HIT:          0  MISS:          0
L1I WRITEBACK ACCESS:          0  HIT:          0  MISS:          0
L1I PREFETCH  REQUESTED:          0  ISSUED:          0  USEFUL:          0  USELESS:          0
L1I AVERAGE MISS LATENCY: 58.7368 cycles
L2C TOTAL     ACCESS:    8873669  HIT:    6591153  MISS:    2282516
L2C LOAD      ACCESS:    3832141  HIT:    2071971  MISS:    1760170
L2C RFO       ACCESS:    1279889  HIT:     777635  MISS:     502254
L2C PREFETCH  ACCESS:          0  HIT:          0  MISS:          0
L2C WRITEBACK ACCESS:    3761639  HIT:    3741547  MISS:      20092
L2C PREFETCH  REQUESTED:          0  ISSUED:          0  USEFUL:          0  USELESS:          0
L2C AVERAGE MISS LATENCY: 129.783 cycles
LLC TOTAL     ACCESS:    3847717  HIT:    2167159  MISS:    1680558
LLC LOAD      ACCESS:    1760163  HIT:     979510  MISS:     780653
LLC RFO       ACCESS:     502251  HIT:     131158  MISS:     371093
LLC PREFETCH  ACCESS:          0  HIT:          0  MISS:          0
LLC WRITEBACK ACCESS:    1585303  HIT:    1056491  MISS:     528812
LLC PREFETCH  REQUESTED:          0  ISSUED:          0  USEFUL:          0  USELESS:          0
LLC AVERAGE MISS LATENCY: 134.162 cycles
Major fault: 0 Minor fault: 11705
==============================
Perceptron RRIP Stats:
   Num Updates: 2445004
   Num Trains:  238605
==============================
perceptron #0: 1 3 -1 1 -3 -3 1 1 -1 -1 -1 1 1 -1 -3 3 -1 -1 1 5 -11 


DRAM Statistics
 CHANNEL 0
 RQ ROW_BUFFER_HIT:     106459  ROW_BUFFER_MISS:    1045281
 DBUS_CONGESTED:     229002
 WQ ROW_BUFFER_HIT:      95892  ROW_BUFFER_MISS:     722044  FULL:       2343

 AVG_CONGESTED_CYCLE: 6

CPU 0 Branch Prediction Accuracy: 92.6995% MPKI: 10.9797 Average ROB Occupancy at Mispredict: 19.5334

Branch types
NOT_BRANCH: 849602987 84.9603%
BRANCH_DIRECT_JUMP: 6669033 0.666903%
BRANCH_INDIRECT: 1417678 0.141768%
BRANCH_CONDITIONAL: 140970715 14.0971%
BRANCH_DIRECT_CALL: 442832 0.0442832%
BRANCH_INDIRECT_CALL: 226828 0.0226828%
BRANCH_RETURN: 669661 0.0669661%
BRANCH_OTHER: 0 0%

