
*** ChampSim Multicore Out-of-Order Simulator ***

Warmup Instructions: 0
Simulation Instructions: 100000000
Number of CPUs: 1
LLC sets: 2048
LLC ways: 16
Off-chip DRAM Size: 4096 MB Channels: 1 Width: 64-bit Data Rate: 3200 MT/s

CPU 0 runs /scratch/user/kevin.weston/dpc3-traces/chirper.champsimtrace.gz
CPU 0 Bimodal branch predictor
Initialize SRRIP state

Warmup complete CPU 0 instructions: 2 cycles: 31 (Simulation time: 0 hr 0 min 0 sec) 

Heartbeat CPU 0 instructions: 10000000 cycles: 5840151978 heartbeat IPC: 0.00171228 cumulative IPC: 0.00171228 (Simulation time: 0 hr 11 min 28 sec) 
Heartbeat CPU 0 instructions: 20000000 cycles: 12028599045 heartbeat IPC: 0.00161591 cumulative IPC: 0.0016627 (Simulation time: 0 hr 24 min 10 sec) 
Heartbeat CPU 0 instructions: 30000000 cycles: 18984476087 heartbeat IPC: 0.00143763 cumulative IPC: 0.00158024 (Simulation time: 0 hr 39 min 12 sec) 
Heartbeat CPU 0 instructions: 40000000 cycles: 24847388784 heartbeat IPC: 0.00170564 cumulative IPC: 0.00160983 (Simulation time: 0 hr 51 min 0 sec) 
*** Reached end of trace for Core: 0 Repeating trace: /scratch/user/kevin.weston/dpc3-traces/chirper.champsimtrace.gz
Heartbeat CPU 0 instructions: 50000000 cycles: 30275314881 heartbeat IPC: 0.00184232 cumulative IPC: 0.00165151 (Simulation time: 1 hr 1 min 30 sec) 
Heartbeat CPU 0 instructions: 60000000 cycles: 36204721945 heartbeat IPC: 0.00168651 cumulative IPC: 0.00165724 (Simulation time: 1 hr 13 min 14 sec) 
Heartbeat CPU 0 instructions: 70000000 cycles: 43133384447 heartbeat IPC: 0.00144328 cumulative IPC: 0.00162287 (Simulation time: 1 hr 28 min 4 sec) 
Heartbeat CPU 0 instructions: 80000000 cycles: 49619436164 heartbeat IPC: 0.00154177 cumulative IPC: 0.00161227 (Simulation time: 1 hr 41 min 38 sec) 
*** Reached end of trace for Core: 0 Repeating trace: /scratch/user/kevin.weston/dpc3-traces/chirper.champsimtrace.gz
Heartbeat CPU 0 instructions: 90000000 cycles: 54602725020 heartbeat IPC: 0.00200671 cumulative IPC: 0.00164827 (Simulation time: 1 hr 50 min 54 sec) 
Heartbeat CPU 0 instructions: 100000000 cycles: 60417261442 heartbeat IPC: 0.00171983 cumulative IPC: 0.00165516 (Simulation time: 2 hr 2 min 12 sec) 
Finished CPU 0 instructions: 100000000 cycles: 60417262415 cumulative IPC: 0.00165516 (Simulation time: 2 hr 2 min 12 sec) 

ChampSim completed all CPUs

Region of Interest Statistics

CPU 0 cumulative IPC: 0.00165516 instructions: 100000000 cycles: 60417262415
L1D TOTAL     ACCESS:  599608371  HIT:  174425389  MISS:  425182982
L1D LOAD      ACCESS:  399616389  HIT:  115478064  MISS:  284138325
L1D RFO       ACCESS:  199991982  HIT:   58947325  MISS:  141044657
L1D PREFETCH  ACCESS:          0  HIT:          0  MISS:          0
L1D WRITEBACK ACCESS:          0  HIT:          0  MISS:          0
L1D PREFETCH  REQUESTED:          0  ISSUED:          0  USEFUL:          0  USELESS:          0
L1D AVERAGE MISS LATENCY: 116.192 cycles
L1I TOTAL     ACCESS:   99999977  HIT:   21065112  MISS:   78934865
L1I LOAD      ACCESS:   99999977  HIT:   21065112  MISS:   78934865
L1I RFO       ACCESS:          0  HIT:          0  MISS:          0
L1I PREFETCH  ACCESS:          0  HIT:          0  MISS:          0
L1I WRITEBACK ACCESS:          0  HIT:          0  MISS:          0
L1I PREFETCH  REQUESTED:          0  ISSUED:          0  USEFUL:          0  USELESS:          0
L1I AVERAGE MISS LATENCY: 74.4267 cycles
L2C TOTAL     ACCESS:  659993270  HIT:  307213714  MISS:  352779556
L2C LOAD      ACCESS:  362978046  HIT:  111028809  MISS:  251949237
L2C RFO       ACCESS:  140897481  HIT:   40430614  MISS:  100466867
L2C PREFETCH  ACCESS:          0  HIT:          0  MISS:          0
L2C WRITEBACK ACCESS:  156117743  HIT:  155754291  MISS:     363452
L2C PREFETCH  REQUESTED:          0  ISSUED:          0  USEFUL:          0  USELESS:          0
L2C AVERAGE MISS LATENCY: 116.12 cycles
LLC TOTAL     ACCESS:  477703376  HIT:  340170721  MISS:  137532655
LLC LOAD      ACCESS:  251945744  HIT:  153831703  MISS:   98114041
LLC RFO       ACCESS:  100466789  HIT:   61397303  MISS:   39069486
LLC PREFETCH  ACCESS:          0  HIT:          0  MISS:          0
LLC WRITEBACK ACCESS:  125290843  HIT:  124941715  MISS:     349128
LLC PREFETCH  REQUESTED:          0  ISSUED:          0  USEFUL:          0  USELESS:          0
LLC AVERAGE MISS LATENCY: 192.981 cycles
Major fault: 0 Minor fault: 546422

DRAM Statistics
 CHANNEL 0
 RQ ROW_BUFFER_HIT:    8231713  ROW_BUFFER_MISS:  128946281
 DBUS_CONGESTED:   23567137
 WQ ROW_BUFFER_HIT:     555220  ROW_BUFFER_MISS:   51514084  FULL:          0

 AVG_CONGESTED_CYCLE: 5

CPU 0 Branch Prediction Accuracy: 0% MPKI: 1000 Average ROB Occupancy at Mispredict: 2.2e-07

Branch types
NOT_BRANCH: 99999967 100%
BRANCH_DIRECT_JUMP: 0 0%
BRANCH_INDIRECT: 0 0%
BRANCH_CONDITIONAL: 0 0%
BRANCH_DIRECT_CALL: 0 0%
BRANCH_INDIRECT_CALL: 0 0%
BRANCH_RETURN: 0 0%
BRANCH_OTHER: 0 0%

