
*** ChampSim Multicore Out-of-Order Simulator ***

Warmup Instructions: 0
Simulation Instructions: 100000000
Number of CPUs: 1
LLC sets: 2048
LLC ways: 16
Off-chip DRAM Size: 4096 MB Channels: 1 Width: 64-bit Data Rate: 3200 MT/s

CPU 0 runs /scratch/user/kevin.weston/dpc3-traces/kafka.champsimtrace.gz
CPU 0 Bimodal branch predictor
Initialize SRRIP state

Warmup complete CPU 0 instructions: 2 cycles: 32 (Simulation time: 0 hr 0 min 0 sec) 

Heartbeat CPU 0 instructions: 10000000 cycles: 5297307956 heartbeat IPC: 0.00188775 cumulative IPC: 0.00188775 (Simulation time: 0 hr 10 min 12 sec) 
Heartbeat CPU 0 instructions: 20000000 cycles: 11949408426 heartbeat IPC: 0.00150328 cumulative IPC: 0.00167372 (Simulation time: 0 hr 23 min 45 sec) 
Heartbeat CPU 0 instructions: 30000000 cycles: 18659638661 heartbeat IPC: 0.00149026 cumulative IPC: 0.00160775 (Simulation time: 0 hr 37 min 27 sec) 
Heartbeat CPU 0 instructions: 40000000 cycles: 25118763860 heartbeat IPC: 0.0015482 cumulative IPC: 0.00159243 (Simulation time: 0 hr 50 min 10 sec) 
*** Reached end of trace for Core: 0 Repeating trace: /scratch/user/kevin.weston/dpc3-traces/kafka.champsimtrace.gz
Heartbeat CPU 0 instructions: 50000000 cycles: 30748478454 heartbeat IPC: 0.00177629 cumulative IPC: 0.0016261 (Simulation time: 1 hr 1 min 6 sec) 
Heartbeat CPU 0 instructions: 60000000 cycles: 36994020366 heartbeat IPC: 0.00160114 cumulative IPC: 0.00162188 (Simulation time: 1 hr 13 min 35 sec) 
Heartbeat CPU 0 instructions: 70000000 cycles: 43669112278 heartbeat IPC: 0.00149811 cumulative IPC: 0.00160296 (Simulation time: 1 hr 27 min 1 sec) 
Heartbeat CPU 0 instructions: 80000000 cycles: 50190188337 heartbeat IPC: 0.00153349 cumulative IPC: 0.00159394 (Simulation time: 1 hr 39 min 57 sec) 
Heartbeat CPU 0 instructions: 90000000 cycles: 56705962285 heartbeat IPC: 0.00153474 cumulative IPC: 0.00158713 (Simulation time: 1 hr 52 min 52 sec) 
*** Reached end of trace for Core: 0 Repeating trace: /scratch/user/kevin.weston/dpc3-traces/kafka.champsimtrace.gz
Heartbeat CPU 0 instructions: 100000000 cycles: 62005144985 heartbeat IPC: 0.00188708 cumulative IPC: 0.00161277 (Simulation time: 2 hr 3 min 6 sec) 
Finished CPU 0 instructions: 100000000 cycles: 62005146277 cumulative IPC: 0.00161277 (Simulation time: 2 hr 3 min 6 sec) 

ChampSim completed all CPUs

Region of Interest Statistics

CPU 0 cumulative IPC: 0.00161277 instructions: 100000000 cycles: 62005146277
L1D TOTAL     ACCESS:  599780172  HIT:  168278011  MISS:  431502161
L1D LOAD      ACCESS:  399783516  HIT:  110290288  MISS:  289493228
L1D RFO       ACCESS:  199996656  HIT:   57987723  MISS:  142008933
L1D PREFETCH  ACCESS:          0  HIT:          0  MISS:          0
L1D WRITEBACK ACCESS:          0  HIT:          0  MISS:          0
L1D PREFETCH  REQUESTED:          0  ISSUED:          0  USEFUL:          0  USELESS:          0
L1D AVERAGE MISS LATENCY: 117.963 cycles
L1I TOTAL     ACCESS:   99999976  HIT:   20265169  MISS:   79734807
L1I LOAD      ACCESS:   99999976  HIT:   20265169  MISS:   79734807
L1I RFO       ACCESS:          0  HIT:          0  MISS:          0
L1I PREFETCH  ACCESS:          0  HIT:          0  MISS:          0
L1I WRITEBACK ACCESS:          0  HIT:          0  MISS:          0
L1I PREFETCH  REQUESTED:          0  ISSUED:          0  USEFUL:          0  USELESS:          0
L1I AVERAGE MISS LATENCY: 77.0912 cycles
L2C TOTAL     ACCESS:  670435221  HIT:  315260060  MISS:  355175161
L2C LOAD      ACCESS:  369143701  HIT:  115100940  MISS:  254042761
L2C RFO       ACCESS:  141832856  HIT:   41077463  MISS:  100755393
L2C PREFETCH  ACCESS:          0  HIT:          0  MISS:          0
L2C WRITEBACK ACCESS:  159458664  HIT:  159081657  MISS:     377007
L2C PREFETCH  REQUESTED:          0  ISSUED:          0  USEFUL:          0  USELESS:          0
L2C AVERAGE MISS LATENCY: 119.192 cycles
LLC TOTAL     ACCESS:  482175079  HIT:  332608064  MISS:  149567015
LLC LOAD      ACCESS:  254039702  HIT:  147239083  MISS:  106800619
LLC RFO       ACCESS:  100755314  HIT:   58354168  MISS:   42401146
LLC PREFETCH  ACCESS:          0  HIT:          0  MISS:          0
LLC WRITEBACK ACCESS:  127380063  HIT:  127014813  MISS:     365250
LLC PREFETCH  REQUESTED:          0  ISSUED:          0  USEFUL:          0  USELESS:          0
LLC AVERAGE MISS LATENCY: 185.996 cycles
Major fault: 0 Minor fault: 741998

DRAM Statistics
 CHANNEL 0
 RQ ROW_BUFFER_HIT:    8120865  ROW_BUFFER_MISS:  141076763
 DBUS_CONGESTED:   27117996
 WQ ROW_BUFFER_HIT:     767872  ROW_BUFFER_MISS:   55369658  FULL:          0

 AVG_CONGESTED_CYCLE: 5

CPU 0 Branch Prediction Accuracy: 0% MPKI: 1000 Average ROB Occupancy at Mispredict: 2.3e-07

Branch types
NOT_BRANCH: 99999966 100%
BRANCH_DIRECT_JUMP: 0 0%
BRANCH_INDIRECT: 0 0%
BRANCH_CONDITIONAL: 0 0%
BRANCH_DIRECT_CALL: 0 0%
BRANCH_INDIRECT_CALL: 0 0%
BRANCH_RETURN: 0 0%
BRANCH_OTHER: 0 0%

