
*** ChampSim Multicore Out-of-Order Simulator ***

Warmup Instructions: 0
Simulation Instructions: 100000000
Number of CPUs: 1
LLC sets: 2048
LLC ways: 16
Off-chip DRAM Size: 4096 MB Channels: 1 Width: 64-bit Data Rate: 3200 MT/s

CPU 0 runs /scratch/user/kevin.weston/dpc3-traces/kafka.champsimtrace.gz
CPU 0 Bimodal branch predictor
Initialize RRPV
Initialize PRRIP state

Warmup complete CPU 0 instructions: 2 cycles: 32 (Simulation time: 0 hr 0 min 0 sec) 

Heartbeat CPU 0 instructions: 10000000 cycles: 5293609707 heartbeat IPC: 0.00188907 cumulative IPC: 0.00188907 (Simulation time: 0 hr 10 min 17 sec) 
Heartbeat CPU 0 instructions: 20000000 cycles: 11918490379 heartbeat IPC: 0.00150946 cumulative IPC: 0.00167806 (Simulation time: 0 hr 23 min 50 sec) 
Heartbeat CPU 0 instructions: 30000000 cycles: 18609448766 heartbeat IPC: 0.00149455 cumulative IPC: 0.00161208 (Simulation time: 0 hr 37 min 37 sec) 
Heartbeat CPU 0 instructions: 40000000 cycles: 25063319682 heartbeat IPC: 0.00154946 cumulative IPC: 0.00159596 (Simulation time: 0 hr 50 min 36 sec) 
*** Reached end of trace for Core: 0 Repeating trace: /scratch/user/kevin.weston/dpc3-traces/kafka.champsimtrace.gz
Heartbeat CPU 0 instructions: 50000000 cycles: 30681956357 heartbeat IPC: 0.00177979 cumulative IPC: 0.00162962 (Simulation time: 1 hr 1 min 45 sec) 
Heartbeat CPU 0 instructions: 60000000 cycles: 36911085017 heartbeat IPC: 0.00160536 cumulative IPC: 0.00162553 (Simulation time: 1 hr 14 min 26 sec) 
Heartbeat CPU 0 instructions: 70000000 cycles: 43564274026 heartbeat IPC: 0.00150304 cumulative IPC: 0.00160682 (Simulation time: 1 hr 28 min 5 sec) 
Heartbeat CPU 0 instructions: 80000000 cycles: 50073267552 heartbeat IPC: 0.00153634 cumulative IPC: 0.00159766 (Simulation time: 1 hr 41 min 15 sec) 
Heartbeat CPU 0 instructions: 90000000 cycles: 56579460359 heartbeat IPC: 0.001537 cumulative IPC: 0.00159068 (Simulation time: 1 hr 54 min 19 sec) 
*** Reached end of trace for Core: 0 Repeating trace: /scratch/user/kevin.weston/dpc3-traces/kafka.champsimtrace.gz
Heartbeat CPU 0 instructions: 100000000 cycles: 61873785927 heartbeat IPC: 0.00188881 cumulative IPC: 0.00161619 (Simulation time: 2 hr 4 min 37 sec) 
Finished CPU 0 instructions: 100000000 cycles: 61873787390 cumulative IPC: 0.00161619 (Simulation time: 2 hr 4 min 37 sec) 

ChampSim completed all CPUs

Region of Interest Statistics

CPU 0 cumulative IPC: 0.00161619 instructions: 100000000 cycles: 61873787390
L1D TOTAL     ACCESS:  599781229  HIT:  168279058  MISS:  431502171
L1D LOAD      ACCESS:  399784652  HIT:  110291077  MISS:  289493575
L1D RFO       ACCESS:  199996577  HIT:   57987981  MISS:  142008596
L1D PREFETCH  ACCESS:          0  HIT:          0  MISS:          0
L1D WRITEBACK ACCESS:          0  HIT:          0  MISS:          0
L1D PREFETCH  REQUESTED:          0  ISSUED:          0  USEFUL:          0  USELESS:          0
L1D AVERAGE MISS LATENCY: 116.423 cycles
L1I TOTAL     ACCESS:   99999976  HIT:   20265169  MISS:   79734807
L1I LOAD      ACCESS:   99999976  HIT:   20265169  MISS:   79734807
L1I RFO       ACCESS:          0  HIT:          0  MISS:          0
L1I PREFETCH  ACCESS:          0  HIT:          0  MISS:          0
L1I WRITEBACK ACCESS:          0  HIT:          0  MISS:          0
L1I PREFETCH  REQUESTED:          0  ISSUED:          0  USEFUL:          0  USELESS:          0
L1I AVERAGE MISS LATENCY: 76.3953 cycles
L2C TOTAL     ACCESS:  670437531  HIT:  315262189  MISS:  355175342
L2C LOAD      ACCESS:  369145533  HIT:  115102628  MISS:  254042905
L2C RFO       ACCESS:  141833409  HIT:   41077955  MISS:  100755454
L2C PREFETCH  ACCESS:          0  HIT:          0  MISS:          0
L2C WRITEBACK ACCESS:  159458589  HIT:  159081606  MISS:     376983
L2C PREFETCH  REQUESTED:          0  ISSUED:          0  USEFUL:          0  USELESS:          0
L2C AVERAGE MISS LATENCY: 117.181 cycles
LLC TOTAL     ACCESS:  482174918  HIT:  309866377  MISS:  172308541
LLC LOAD      ACCESS:  254039841  HIT:  148799254  MISS:  105240587
LLC RFO       ACCESS:  100755371  HIT:   59046872  MISS:   41708499
LLC PREFETCH  ACCESS:          0  HIT:          0  MISS:          0
LLC WRITEBACK ACCESS:  127379706  HIT:  102020251  MISS:   25359455
LLC PREFETCH  REQUESTED:          0  ISSUED:          0  USEFUL:          0  USELESS:          0
LLC AVERAGE MISS LATENCY: 157.36 cycles
Major fault: 0 Minor fault: 741998
==============================
Perceptron RRIP Stats:
   Num Updates: 482164688
   Num Trains:  48659530
==============================
perceptron #0: 4 2 -4 -2 -2 0 2 0 -2 -2 0 2 6 0 0 -8 


DRAM Statistics
 CHANNEL 0
 RQ ROW_BUFFER_HIT:    8823210  ROW_BUFFER_MISS:  138122666
 DBUS_CONGESTED:   24590197
 WQ ROW_BUFFER_HIT:     685359  ROW_BUFFER_MISS:   50395463  FULL:          0

 AVG_CONGESTED_CYCLE: 5

CPU 0 Branch Prediction Accuracy: 0% MPKI: 1000 Average ROB Occupancy at Mispredict: 2.3e-07

Branch types
NOT_BRANCH: 99999966 100%
BRANCH_DIRECT_JUMP: 0 0%
BRANCH_INDIRECT: 0 0%
BRANCH_CONDITIONAL: 0 0%
BRANCH_DIRECT_CALL: 0 0%
BRANCH_INDIRECT_CALL: 0 0%
BRANCH_RETURN: 0 0%
BRANCH_OTHER: 0 0%

