
*** ChampSim Multicore Out-of-Order Simulator ***

Warmup Instructions: 0
Simulation Instructions: 100000000
Number of CPUs: 1
LLC sets: 2048
LLC ways: 16
Off-chip DRAM Size: 4096 MB Channels: 1 Width: 64-bit Data Rate: 3200 MT/s

CPU 0 runs /scratch/user/kevin.weston/dpc3-traces/kafka.champsimtrace.gz
CPU 0 Bimodal branch predictor
Initialize DRRIP state
Assign rand_sets[0]: 454  LLC: 2048
rand_sets[0]: 454
Assign rand_sets[1]: 1662  LLC: 2048
rand_sets[1]: 1662
Assign rand_sets[2]: 1921  LLC: 2048
rand_sets[2]: 1921
Assign rand_sets[3]: 1131  LLC: 2048
rand_sets[3]: 1131
Assign rand_sets[4]: 331  LLC: 2048
rand_sets[4]: 331
Assign rand_sets[5]: 1531  LLC: 2048
rand_sets[5]: 1531
Assign rand_sets[6]: 482  LLC: 2048
rand_sets[6]: 482
Assign rand_sets[7]: 1275  LLC: 2048
rand_sets[7]: 1275
Assign rand_sets[8]: 1876  LLC: 2048
rand_sets[8]: 1876
Assign rand_sets[9]: 2038  LLC: 2048
rand_sets[9]: 2038
Assign rand_sets[10]: 701  LLC: 2048
rand_sets[10]: 701
Assign rand_sets[11]: 479  LLC: 2048
rand_sets[11]: 479
Assign rand_sets[12]: 892  LLC: 2048
rand_sets[12]: 892
Assign rand_sets[13]: 1820  LLC: 2048
rand_sets[13]: 1820
Assign rand_sets[14]: 1505  LLC: 2048
rand_sets[14]: 1505
Assign rand_sets[15]: 1159  LLC: 2048
rand_sets[15]: 1159
Assign rand_sets[16]: 513  LLC: 2048
rand_sets[16]: 513
Assign rand_sets[17]: 703  LLC: 2048
rand_sets[17]: 703
Assign rand_sets[18]: 561  LLC: 2048
rand_sets[18]: 561
Assign rand_sets[19]: 990  LLC: 2048
rand_sets[19]: 990
Assign rand_sets[20]: 342  LLC: 2048
rand_sets[20]: 342
Assign rand_sets[21]: 882  LLC: 2048
rand_sets[21]: 882
Assign rand_sets[22]: 15  LLC: 2048
rand_sets[22]: 15
Assign rand_sets[23]: 71  LLC: 2048
rand_sets[23]: 71
Assign rand_sets[24]: 1127  LLC: 2048
rand_sets[24]: 1127
Assign rand_sets[25]: 1382  LLC: 2048
rand_sets[25]: 1382
Assign rand_sets[26]: 647  LLC: 2048
rand_sets[26]: 647
Assign rand_sets[27]: 857  LLC: 2048
rand_sets[27]: 857
Assign rand_sets[28]: 1450  LLC: 2048
rand_sets[28]: 1450
Assign rand_sets[29]: 1160  LLC: 2048
rand_sets[29]: 1160
Assign rand_sets[30]: 1852  LLC: 2048
rand_sets[30]: 1852
Assign rand_sets[31]: 1881  LLC: 2048
rand_sets[31]: 1881
Assign rand_sets[32]: 1770  LLC: 2048
rand_sets[32]: 1770
Assign rand_sets[33]: 1622  LLC: 2048
rand_sets[33]: 1622
Assign rand_sets[34]: 275  LLC: 2048
rand_sets[34]: 275
Assign rand_sets[35]: 635  LLC: 2048
rand_sets[35]: 635
Assign rand_sets[36]: 466  LLC: 2048
rand_sets[36]: 466
Assign rand_sets[37]: 1413  LLC: 2048
rand_sets[37]: 1413
Assign rand_sets[38]: 417  LLC: 2048
rand_sets[38]: 417
Assign rand_sets[39]: 472  LLC: 2048
rand_sets[39]: 472
Assign rand_sets[40]: 1340  LLC: 2048
rand_sets[40]: 1340
Assign rand_sets[41]: 852  LLC: 2048
rand_sets[41]: 852
Assign rand_sets[42]: 1365  LLC: 2048
rand_sets[42]: 1365
Assign rand_sets[43]: 47  LLC: 2048
rand_sets[43]: 47
Assign rand_sets[44]: 823  LLC: 2048
rand_sets[44]: 823
Assign rand_sets[45]: 686  LLC: 2048
rand_sets[45]: 686
Assign rand_sets[46]: 1637  LLC: 2048
rand_sets[46]: 1637
Assign rand_sets[47]: 1115  LLC: 2048
rand_sets[47]: 1115
Assign rand_sets[48]: 986  LLC: 2048
rand_sets[48]: 986
Assign rand_sets[49]: 258  LLC: 2048
rand_sets[49]: 258
Assign rand_sets[50]: 633  LLC: 2048
rand_sets[50]: 633
Assign rand_sets[51]: 920  LLC: 2048
rand_sets[51]: 920
Assign rand_sets[52]: 204  LLC: 2048
rand_sets[52]: 204
Assign rand_sets[53]: 227  LLC: 2048
rand_sets[53]: 227
Assign rand_sets[54]: 1818  LLC: 2048
rand_sets[54]: 1818
Assign rand_sets[55]: 886  LLC: 2048
rand_sets[55]: 886
Assign rand_sets[56]: 1422  LLC: 2048
rand_sets[56]: 1422
Assign rand_sets[57]: 607  LLC: 2048
rand_sets[57]: 607
Assign rand_sets[58]: 217  LLC: 2048
rand_sets[58]: 217
Assign rand_sets[59]: 1945  LLC: 2048
rand_sets[59]: 1945
Assign rand_sets[60]: 143  LLC: 2048
rand_sets[60]: 143
Assign rand_sets[61]: 1311  LLC: 2048
rand_sets[61]: 1311
Assign rand_sets[62]: 319  LLC: 2048
rand_sets[62]: 319
Assign rand_sets[63]: 1846  LLC: 2048
rand_sets[63]: 1846

Warmup complete CPU 0 instructions: 2 cycles: 32 (Simulation time: 0 hr 0 min 0 sec) 

Heartbeat CPU 0 instructions: 10000000 cycles: 5319043010 heartbeat IPC: 0.00188004 cumulative IPC: 0.00188004 (Simulation time: 0 hr 10 min 30 sec) 
Heartbeat CPU 0 instructions: 20000000 cycles: 11980842224 heartbeat IPC: 0.0015011 cumulative IPC: 0.00166933 (Simulation time: 0 hr 24 min 11 sec) 
Heartbeat CPU 0 instructions: 30000000 cycles: 18707345180 heartbeat IPC: 0.00148666 cumulative IPC: 0.00160365 (Simulation time: 0 hr 38 min 5 sec) 
Heartbeat CPU 0 instructions: 40000000 cycles: 25200944987 heartbeat IPC: 0.00153998 cumulative IPC: 0.00158724 (Simulation time: 0 hr 51 min 11 sec) 
*** Reached end of trace for Core: 0 Repeating trace: /scratch/user/kevin.weston/dpc3-traces/kafka.champsimtrace.gz
Heartbeat CPU 0 instructions: 50000000 cycles: 30846033126 heartbeat IPC: 0.00177145 cumulative IPC: 0.00162095 (Simulation time: 1 hr 2 min 17 sec) 
Heartbeat CPU 0 instructions: 60000000 cycles: 37112192724 heartbeat IPC: 0.00159587 cumulative IPC: 0.00161672 (Simulation time: 1 hr 14 min 58 sec) 
Heartbeat CPU 0 instructions: 70000000 cycles: 43802509257 heartbeat IPC: 0.0014947 cumulative IPC: 0.00159808 (Simulation time: 1 hr 28 min 31 sec) 
Heartbeat CPU 0 instructions: 80000000 cycles: 50349481237 heartbeat IPC: 0.00152742 cumulative IPC: 0.00158889 (Simulation time: 1 hr 41 min 37 sec) 
Heartbeat CPU 0 instructions: 90000000 cycles: 56895470916 heartbeat IPC: 0.00152765 cumulative IPC: 0.00158185 (Simulation time: 1 hr 54 min 42 sec) 
*** Reached end of trace for Core: 0 Repeating trace: /scratch/user/kevin.weston/dpc3-traces/kafka.champsimtrace.gz
Heartbeat CPU 0 instructions: 100000000 cycles: 62216010711 heartbeat IPC: 0.00187951 cumulative IPC: 0.0016073 (Simulation time: 2 hr 5 min 12 sec) 
Finished CPU 0 instructions: 100000000 cycles: 62216012174 cumulative IPC: 0.0016073 (Simulation time: 2 hr 5 min 12 sec) 

ChampSim completed all CPUs

Region of Interest Statistics

CPU 0 cumulative IPC: 0.0016073 instructions: 100000000 cycles: 62216012174
L1D TOTAL     ACCESS:  599781183  HIT:  168273883  MISS:  431507300
L1D LOAD      ACCESS:  399784601  HIT:  110289699  MISS:  289494902
L1D RFO       ACCESS:  199996582  HIT:   57984184  MISS:  142012398
L1D PREFETCH  ACCESS:          0  HIT:          0  MISS:          0
L1D WRITEBACK ACCESS:          0  HIT:          0  MISS:          0
L1D PREFETCH  REQUESTED:          0  ISSUED:          0  USEFUL:          0  USELESS:          0
L1D AVERAGE MISS LATENCY: 117.766 cycles
L1I TOTAL     ACCESS:   99999976  HIT:   20265169  MISS:   79734807
L1I LOAD      ACCESS:   99999976  HIT:   20265169  MISS:   79734807
L1I RFO       ACCESS:          0  HIT:          0  MISS:          0
L1I PREFETCH  ACCESS:          0  HIT:          0  MISS:          0
L1I WRITEBACK ACCESS:          0  HIT:          0  MISS:          0
L1I PREFETCH  REQUESTED:          0  ISSUED:          0  USEFUL:          0  USELESS:          0
L1I AVERAGE MISS LATENCY: 77.4734 cycles
L2C TOTAL     ACCESS:  670446492  HIT:  316329111  MISS:  354117381
L2C LOAD      ACCESS:  369148456  HIT:  115858894  MISS:  253289562
L2C RFO       ACCESS:  141839490  HIT:   41406949  MISS:  100432541
L2C PREFETCH  ACCESS:          0  HIT:          0  MISS:          0
L2C WRITEBACK ACCESS:  159458546  HIT:  159063268  MISS:     395278
L2C PREFETCH  REQUESTED:          0  ISSUED:          0  USEFUL:          0  USELESS:          0
L2C AVERAGE MISS LATENCY: 119.344 cycles
LLC TOTAL     ACCESS:  480596328  HIT:  302757306  MISS:  177839022
LLC LOAD      ACCESS:  253286630  HIT:  145436523  MISS:  107850107
LLC RFO       ACCESS:  100432381  HIT:   57697959  MISS:   42734422
LLC PREFETCH  ACCESS:          0  HIT:          0  MISS:          0
LLC WRITEBACK ACCESS:  126877317  HIT:   99622824  MISS:   27254493
LLC PREFETCH  REQUESTED:          0  ISSUED:          0  USEFUL:          0  USELESS:          0
LLC AVERAGE MISS LATENCY: 156.39 cycles
Major fault: 0 Minor fault: 741998

DRAM Statistics
 CHANNEL 0
 RQ ROW_BUFFER_HIT:    8944105  ROW_BUFFER_MISS:  141637162
 DBUS_CONGESTED:   25387239
 WQ ROW_BUFFER_HIT:     686422  ROW_BUFFER_MISS:   50458102  FULL:          0

 AVG_CONGESTED_CYCLE: 5

CPU 0 Branch Prediction Accuracy: 0% MPKI: 1000 Average ROB Occupancy at Mispredict: 2.3e-07

Branch types
NOT_BRANCH: 99999966 100%
BRANCH_DIRECT_JUMP: 0 0%
BRANCH_INDIRECT: 0 0%
BRANCH_CONDITIONAL: 0 0%
BRANCH_DIRECT_CALL: 0 0%
BRANCH_INDIRECT_CALL: 0 0%
BRANCH_RETURN: 0 0%
BRANCH_OTHER: 0 0%

