
*** ChampSim Multicore Out-of-Order Simulator ***

Warmup Instructions: 0
Simulation Instructions: 100000000
Number of CPUs: 1
LLC sets: 2048
LLC ways: 16
Off-chip DRAM Size: 4096 MB Channels: 1 Width: 64-bit Data Rate: 3200 MT/s

CPU 0 runs /scratch/user/kevin.weston/dpc3-traces/tomcat.champsimtrace.gz
CPU 0 Bimodal branch predictor
Initialize DRRIP state
Assign rand_sets[0]: 454  LLC: 2048
rand_sets[0]: 454
Assign rand_sets[1]: 1662  LLC: 2048
rand_sets[1]: 1662
Assign rand_sets[2]: 1921  LLC: 2048
rand_sets[2]: 1921
Assign rand_sets[3]: 1131  LLC: 2048
rand_sets[3]: 1131
Assign rand_sets[4]: 331  LLC: 2048
rand_sets[4]: 331
Assign rand_sets[5]: 1531  LLC: 2048
rand_sets[5]: 1531
Assign rand_sets[6]: 482  LLC: 2048
rand_sets[6]: 482
Assign rand_sets[7]: 1275  LLC: 2048
rand_sets[7]: 1275
Assign rand_sets[8]: 1876  LLC: 2048
rand_sets[8]: 1876
Assign rand_sets[9]: 2038  LLC: 2048
rand_sets[9]: 2038
Assign rand_sets[10]: 701  LLC: 2048
rand_sets[10]: 701
Assign rand_sets[11]: 479  LLC: 2048
rand_sets[11]: 479
Assign rand_sets[12]: 892  LLC: 2048
rand_sets[12]: 892
Assign rand_sets[13]: 1820  LLC: 2048
rand_sets[13]: 1820
Assign rand_sets[14]: 1505  LLC: 2048
rand_sets[14]: 1505
Assign rand_sets[15]: 1159  LLC: 2048
rand_sets[15]: 1159
Assign rand_sets[16]: 513  LLC: 2048
rand_sets[16]: 513
Assign rand_sets[17]: 703  LLC: 2048
rand_sets[17]: 703
Assign rand_sets[18]: 561  LLC: 2048
rand_sets[18]: 561
Assign rand_sets[19]: 990  LLC: 2048
rand_sets[19]: 990
Assign rand_sets[20]: 342  LLC: 2048
rand_sets[20]: 342
Assign rand_sets[21]: 882  LLC: 2048
rand_sets[21]: 882
Assign rand_sets[22]: 15  LLC: 2048
rand_sets[22]: 15
Assign rand_sets[23]: 71  LLC: 2048
rand_sets[23]: 71
Assign rand_sets[24]: 1127  LLC: 2048
rand_sets[24]: 1127
Assign rand_sets[25]: 1382  LLC: 2048
rand_sets[25]: 1382
Assign rand_sets[26]: 647  LLC: 2048
rand_sets[26]: 647
Assign rand_sets[27]: 857  LLC: 2048
rand_sets[27]: 857
Assign rand_sets[28]: 1450  LLC: 2048
rand_sets[28]: 1450
Assign rand_sets[29]: 1160  LLC: 2048
rand_sets[29]: 1160
Assign rand_sets[30]: 1852  LLC: 2048
rand_sets[30]: 1852
Assign rand_sets[31]: 1881  LLC: 2048
rand_sets[31]: 1881
Assign rand_sets[32]: 1770  LLC: 2048
rand_sets[32]: 1770
Assign rand_sets[33]: 1622  LLC: 2048
rand_sets[33]: 1622
Assign rand_sets[34]: 275  LLC: 2048
rand_sets[34]: 275
Assign rand_sets[35]: 635  LLC: 2048
rand_sets[35]: 635
Assign rand_sets[36]: 466  LLC: 2048
rand_sets[36]: 466
Assign rand_sets[37]: 1413  LLC: 2048
rand_sets[37]: 1413
Assign rand_sets[38]: 417  LLC: 2048
rand_sets[38]: 417
Assign rand_sets[39]: 472  LLC: 2048
rand_sets[39]: 472
Assign rand_sets[40]: 1340  LLC: 2048
rand_sets[40]: 1340
Assign rand_sets[41]: 852  LLC: 2048
rand_sets[41]: 852
Assign rand_sets[42]: 1365  LLC: 2048
rand_sets[42]: 1365
Assign rand_sets[43]: 47  LLC: 2048
rand_sets[43]: 47
Assign rand_sets[44]: 823  LLC: 2048
rand_sets[44]: 823
Assign rand_sets[45]: 686  LLC: 2048
rand_sets[45]: 686
Assign rand_sets[46]: 1637  LLC: 2048
rand_sets[46]: 1637
Assign rand_sets[47]: 1115  LLC: 2048
rand_sets[47]: 1115
Assign rand_sets[48]: 986  LLC: 2048
rand_sets[48]: 986
Assign rand_sets[49]: 258  LLC: 2048
rand_sets[49]: 258
Assign rand_sets[50]: 633  LLC: 2048
rand_sets[50]: 633
Assign rand_sets[51]: 920  LLC: 2048
rand_sets[51]: 920
Assign rand_sets[52]: 204  LLC: 2048
rand_sets[52]: 204
Assign rand_sets[53]: 227  LLC: 2048
rand_sets[53]: 227
Assign rand_sets[54]: 1818  LLC: 2048
rand_sets[54]: 1818
Assign rand_sets[55]: 886  LLC: 2048
rand_sets[55]: 886
Assign rand_sets[56]: 1422  LLC: 2048
rand_sets[56]: 1422
Assign rand_sets[57]: 607  LLC: 2048
rand_sets[57]: 607
Assign rand_sets[58]: 217  LLC: 2048
rand_sets[58]: 217
Assign rand_sets[59]: 1945  LLC: 2048
rand_sets[59]: 1945
Assign rand_sets[60]: 143  LLC: 2048
rand_sets[60]: 143
Assign rand_sets[61]: 1311  LLC: 2048
rand_sets[61]: 1311
Assign rand_sets[62]: 319  LLC: 2048
rand_sets[62]: 319
Assign rand_sets[63]: 1846  LLC: 2048
rand_sets[63]: 1846

Warmup complete CPU 0 instructions: 2 cycles: 32 (Simulation time: 0 hr 0 min 0 sec) 

Heartbeat CPU 0 instructions: 10000000 cycles: 5994845510 heartbeat IPC: 0.0016681 cumulative IPC: 0.0016681 (Simulation time: 0 hr 11 min 57 sec) 
Heartbeat CPU 0 instructions: 20000000 cycles: 12144291712 heartbeat IPC: 0.00162616 cumulative IPC: 0.00164686 (Simulation time: 0 hr 24 min 16 sec) 
Heartbeat CPU 0 instructions: 30000000 cycles: 18263196042 heartbeat IPC: 0.00163428 cumulative IPC: 0.00164265 (Simulation time: 0 hr 36 min 33 sec) 
Heartbeat CPU 0 instructions: 40000000 cycles: 24194511488 heartbeat IPC: 0.00168597 cumulative IPC: 0.00165327 (Simulation time: 0 hr 48 min 24 sec) 
*** Reached end of trace for Core: 0 Repeating trace: /scratch/user/kevin.weston/dpc3-traces/tomcat.champsimtrace.gz
Heartbeat CPU 0 instructions: 50000000 cycles: 30262622399 heartbeat IPC: 0.00164796 cumulative IPC: 0.0016522 (Simulation time: 1 hr 0 min 35 sec) 
Heartbeat CPU 0 instructions: 60000000 cycles: 36381149654 heartbeat IPC: 0.00163438 cumulative IPC: 0.00164921 (Simulation time: 1 hr 12 min 52 sec) 
Heartbeat CPU 0 instructions: 70000000 cycles: 42508942678 heartbeat IPC: 0.00163191 cumulative IPC: 0.00164671 (Simulation time: 1 hr 25 min 0 sec) 
Heartbeat CPU 0 instructions: 80000000 cycles: 48499135899 heartbeat IPC: 0.0016694 cumulative IPC: 0.00164951 (Simulation time: 1 hr 36 min 49 sec) 
*** Reached end of trace for Core: 0 Repeating trace: /scratch/user/kevin.weston/dpc3-traces/tomcat.champsimtrace.gz
Heartbeat CPU 0 instructions: 90000000 cycles: 54553968246 heartbeat IPC: 0.00165157 cumulative IPC: 0.00164974 (Simulation time: 1 hr 48 min 53 sec) 
Heartbeat CPU 0 instructions: 100000000 cycles: 60591328028 heartbeat IPC: 0.00165635 cumulative IPC: 0.0016504 (Simulation time: 2 hr 0 min 47 sec) 
Finished CPU 0 instructions: 100000000 cycles: 60591328298 cumulative IPC: 0.0016504 (Simulation time: 2 hr 0 min 47 sec) 

ChampSim completed all CPUs

Region of Interest Statistics

CPU 0 cumulative IPC: 0.0016504 instructions: 100000000 cycles: 60591328298
L1D TOTAL     ACCESS:  599622816  HIT:  180070616  MISS:  419552200
L1D LOAD      ACCESS:  399628776  HIT:  119778807  MISS:  279849969
L1D RFO       ACCESS:  199994040  HIT:   60291809  MISS:  139702231
L1D PREFETCH  ACCESS:          0  HIT:          0  MISS:          0
L1D WRITEBACK ACCESS:          0  HIT:          0  MISS:          0
L1D PREFETCH  REQUESTED:          0  ISSUED:          0  USEFUL:          0  USELESS:          0
L1D AVERAGE MISS LATENCY: 118.759 cycles
L1I TOTAL     ACCESS:   99999976  HIT:   22128370  MISS:   77871606
L1I LOAD      ACCESS:   99999976  HIT:   22128370  MISS:   77871606
L1I RFO       ACCESS:          0  HIT:          0  MISS:          0
L1I PREFETCH  ACCESS:          0  HIT:          0  MISS:          0
L1I WRITEBACK ACCESS:          0  HIT:          0  MISS:          0
L1I PREFETCH  REQUESTED:          0  ISSUED:          0  USEFUL:          0  USELESS:          0
L1I AVERAGE MISS LATENCY: 78.0398 cycles
L2C TOTAL     ACCESS:  650620061  HIT:  295065664  MISS:  355554397
L2C LOAD      ACCESS:  357649092  HIT:  103845076  MISS:  253804016
L2C RFO       ACCESS:  139497767  HIT:   38066968  MISS:  101430799
L2C PREFETCH  ACCESS:          0  HIT:          0  MISS:          0
L2C WRITEBACK ACCESS:  153473202  HIT:  153153620  MISS:     319582
L2C PREFETCH  REQUESTED:          0  ISSUED:          0  USEFUL:          0  USELESS:          0
L2C AVERAGE MISS LATENCY: 117.465 cycles
LLC TOTAL     ACCESS:  481314075  HIT:  316879848  MISS:  164434227
LLC LOAD      ACCESS:  253801680  HIT:  148365147  MISS:  105436533
LLC RFO       ACCESS:  101430695  HIT:   59340127  MISS:   42090568
LLC PREFETCH  ACCESS:          0  HIT:          0  MISS:          0
LLC WRITEBACK ACCESS:  126081700  HIT:  109174574  MISS:   16907126
LLC PREFETCH  REQUESTED:          0  ISSUED:          0  USEFUL:          0  USELESS:          0
LLC AVERAGE MISS LATENCY: 166.71 cycles
Major fault: 0 Minor fault: 436369

DRAM Statistics
 CHANNEL 0
 RQ ROW_BUFFER_HIT:   10980424  ROW_BUFFER_MISS:  136541351
 DBUS_CONGESTED:   27922323
 WQ ROW_BUFFER_HIT:     686372  ROW_BUFFER_MISS:   54891588  FULL:          0

 AVG_CONGESTED_CYCLE: 5

CPU 0 Branch Prediction Accuracy: 0% MPKI: 1000 Average ROB Occupancy at Mispredict: 2.3e-07

Branch types
NOT_BRANCH: 99999966 100%
BRANCH_DIRECT_JUMP: 0 0%
BRANCH_INDIRECT: 0 0%
BRANCH_CONDITIONAL: 0 0%
BRANCH_DIRECT_CALL: 0 0%
BRANCH_INDIRECT_CALL: 0 0%
BRANCH_RETURN: 0 0%
BRANCH_OTHER: 0 0%

