
*** ChampSim Multicore Out-of-Order Simulator ***

Warmup Instructions: 0
Simulation Instructions: 100000000
Number of CPUs: 1
LLC sets: 2048
LLC ways: 16
Off-chip DRAM Size: 4096 MB Channels: 1 Width: 64-bit Data Rate: 3200 MT/s

CPU 0 runs /scratch/user/kevin.weston/dpc3-traces/tomcat.champsimtrace.gz
CPU 0 Bimodal branch predictor
Initialize SRRIP state

Warmup complete CPU 0 instructions: 2 cycles: 32 (Simulation time: 0 hr 0 min 0 sec) 

Heartbeat CPU 0 instructions: 10000000 cycles: 5972385838 heartbeat IPC: 0.00167437 cumulative IPC: 0.00167437 (Simulation time: 0 hr 11 min 58 sec) 
Heartbeat CPU 0 instructions: 20000000 cycles: 12097851737 heartbeat IPC: 0.00163253 cumulative IPC: 0.00165319 (Simulation time: 0 hr 24 min 22 sec) 
Heartbeat CPU 0 instructions: 30000000 cycles: 18186724487 heartbeat IPC: 0.00164234 cumulative IPC: 0.00164955 (Simulation time: 0 hr 36 min 40 sec) 
Heartbeat CPU 0 instructions: 40000000 cycles: 24101070614 heartbeat IPC: 0.0016908 cumulative IPC: 0.00165968 (Simulation time: 0 hr 48 min 28 sec) 
*** Reached end of trace for Core: 0 Repeating trace: /scratch/user/kevin.weston/dpc3-traces/tomcat.champsimtrace.gz
Heartbeat CPU 0 instructions: 50000000 cycles: 30143524310 heartbeat IPC: 0.00165496 cumulative IPC: 0.00165873 (Simulation time: 1 hr 0 min 35 sec) 
Heartbeat CPU 0 instructions: 60000000 cycles: 36235469380 heartbeat IPC: 0.00164151 cumulative IPC: 0.00165584 (Simulation time: 1 hr 12 min 49 sec) 
Heartbeat CPU 0 instructions: 70000000 cycles: 42339808669 heartbeat IPC: 0.00163818 cumulative IPC: 0.00165329 (Simulation time: 1 hr 25 min 3 sec) 
Heartbeat CPU 0 instructions: 80000000 cycles: 48302217722 heartbeat IPC: 0.00167717 cumulative IPC: 0.00165624 (Simulation time: 1 hr 36 min 59 sec) 
*** Reached end of trace for Core: 0 Repeating trace: /scratch/user/kevin.weston/dpc3-traces/tomcat.champsimtrace.gz
Heartbeat CPU 0 instructions: 90000000 cycles: 54336870728 heartbeat IPC: 0.0016571 cumulative IPC: 0.00165633 (Simulation time: 1 hr 49 min 7 sec) 
Heartbeat CPU 0 instructions: 100000000 cycles: 60345239748 heartbeat IPC: 0.00166435 cumulative IPC: 0.00165713 (Simulation time: 2 hr 1 min 6 sec) 
Finished CPU 0 instructions: 100000000 cycles: 60345240018 cumulative IPC: 0.00165713 (Simulation time: 2 hr 1 min 6 sec) 

ChampSim completed all CPUs

Region of Interest Statistics

CPU 0 cumulative IPC: 0.00165713 instructions: 100000000 cycles: 60345240018
L1D TOTAL     ACCESS:  599626779  HIT:  180073825  MISS:  419552954
L1D LOAD      ACCESS:  399632589  HIT:  119781910  MISS:  279850679
L1D RFO       ACCESS:  199994190  HIT:   60291915  MISS:  139702275
L1D PREFETCH  ACCESS:          0  HIT:          0  MISS:          0
L1D WRITEBACK ACCESS:          0  HIT:          0  MISS:          0
L1D PREFETCH  REQUESTED:          0  ISSUED:          0  USEFUL:          0  USELESS:          0
L1D AVERAGE MISS LATENCY: 118.212 cycles
L1I TOTAL     ACCESS:   99999976  HIT:   22128370  MISS:   77871606
L1I LOAD      ACCESS:   99999976  HIT:   22128370  MISS:   77871606
L1I RFO       ACCESS:          0  HIT:          0  MISS:          0
L1I PREFETCH  ACCESS:          0  HIT:          0  MISS:          0
L1I WRITEBACK ACCESS:          0  HIT:          0  MISS:          0
L1I PREFETCH  REQUESTED:          0  ISSUED:          0  USEFUL:          0  USELESS:          0
L1I AVERAGE MISS LATENCY: 77.4289 cycles
L2C TOTAL     ACCESS:  650619921  HIT:  294376480  MISS:  356243441
L2C LOAD      ACCESS:  357648743  HIT:  103372784  MISS:  254275959
L2C RFO       ACCESS:  139497840  HIT:   37862793  MISS:  101635047
L2C PREFETCH  ACCESS:          0  HIT:          0  MISS:          0
L2C WRITEBACK ACCESS:  153473338  HIT:  153140903  MISS:     332435
L2C PREFETCH  REQUESTED:          0  ISSUED:          0  USEFUL:          0  USELESS:          0
L2C AVERAGE MISS LATENCY: 116.525 cycles
LLC TOTAL     ACCESS:  482089479  HIT:  336454222  MISS:  145635257
LLC LOAD      ACCESS:  254273056  HIT:  150457050  MISS:  103816006
LLC RFO       ACCESS:  101634983  HIT:   60208979  MISS:   41426004
LLC PREFETCH  ACCESS:          0  HIT:          0  MISS:          0
LLC WRITEBACK ACCESS:  126181440  HIT:  125788193  MISS:     393247
LLC PREFETCH  REQUESTED:          0  ISSUED:          0  USEFUL:          0  USELESS:          0
LLC AVERAGE MISS LATENCY: 186.169 cycles
Major fault: 0 Minor fault: 436369

DRAM Statistics
 CHANNEL 0
 RQ ROW_BUFFER_HIT:   10461000  ROW_BUFFER_MISS:  134775715
 DBUS_CONGESTED:   28294136
 WQ ROW_BUFFER_HIT:     690699  ROW_BUFFER_MISS:   55726449  FULL:          0

 AVG_CONGESTED_CYCLE: 5

CPU 0 Branch Prediction Accuracy: 0% MPKI: 1000 Average ROB Occupancy at Mispredict: 2.3e-07

Branch types
NOT_BRANCH: 99999966 100%
BRANCH_DIRECT_JUMP: 0 0%
BRANCH_INDIRECT: 0 0%
BRANCH_CONDITIONAL: 0 0%
BRANCH_DIRECT_CALL: 0 0%
BRANCH_INDIRECT_CALL: 0 0%
BRANCH_RETURN: 0 0%
BRANCH_OTHER: 0 0%

