
*** ChampSim Multicore Out-of-Order Simulator ***

Warmup Instructions: 0
Simulation Instructions: 100000000
Number of CPUs: 1
LLC sets: 2048
LLC ways: 16
Off-chip DRAM Size: 4096 MB Channels: 1 Width: 64-bit Data Rate: 3200 MT/s

CPU 0 runs /scratch/user/kevin.weston/dpc3-traces/wordpress.champsimtrace.gz
CPU 0 Bimodal branch predictor
Initialize RRPV
Initialize PRRIP state

Warmup complete CPU 0 instructions: 2 cycles: 29 (Simulation time: 0 hr 0 min 0 sec) 

Heartbeat CPU 0 instructions: 10000000 cycles: 6232636892 heartbeat IPC: 0.00160446 cumulative IPC: 0.00160446 (Simulation time: 0 hr 12 min 23 sec) 
Heartbeat CPU 0 instructions: 20000000 cycles: 12529143141 heartbeat IPC: 0.00158818 cumulative IPC: 0.00159628 (Simulation time: 0 hr 25 min 5 sec) 
Heartbeat CPU 0 instructions: 30000000 cycles: 18850859720 heartbeat IPC: 0.00158185 cumulative IPC: 0.00159144 (Simulation time: 0 hr 37 min 52 sec) 
Heartbeat CPU 0 instructions: 40000000 cycles: 25130200897 heartbeat IPC: 0.00159252 cumulative IPC: 0.00159171 (Simulation time: 0 hr 50 min 35 sec) 
*** Reached end of trace for Core: 0 Repeating trace: /scratch/user/kevin.weston/dpc3-traces/wordpress.champsimtrace.gz
Heartbeat CPU 0 instructions: 50000000 cycles: 31394207384 heartbeat IPC: 0.00159642 cumulative IPC: 0.00159265 (Simulation time: 1 hr 3 min 14 sec) 
Heartbeat CPU 0 instructions: 60000000 cycles: 37665949357 heartbeat IPC: 0.00159445 cumulative IPC: 0.00159295 (Simulation time: 1 hr 15 min 55 sec) 
Heartbeat CPU 0 instructions: 70000000 cycles: 44009501270 heartbeat IPC: 0.0015764 cumulative IPC: 0.00159057 (Simulation time: 1 hr 28 min 49 sec) 
Heartbeat CPU 0 instructions: 80000000 cycles: 50260137969 heartbeat IPC: 0.00159984 cumulative IPC: 0.00159172 (Simulation time: 1 hr 41 min 24 sec) 
*** Reached end of trace for Core: 0 Repeating trace: /scratch/user/kevin.weston/dpc3-traces/wordpress.champsimtrace.gz
Heartbeat CPU 0 instructions: 90000000 cycles: 56558252178 heartbeat IPC: 0.00158778 cumulative IPC: 0.00159128 (Simulation time: 1 hr 54 min 10 sec) 
Heartbeat CPU 0 instructions: 100000000 cycles: 62814387308 heartbeat IPC: 0.00159843 cumulative IPC: 0.00159199 (Simulation time: 2 hr 6 min 46 sec) 
Finished CPU 0 instructions: 100000000 cycles: 62814388726 cumulative IPC: 0.00159199 (Simulation time: 2 hr 6 min 46 sec) 

ChampSim completed all CPUs

Region of Interest Statistics

CPU 0 cumulative IPC: 0.00159199 instructions: 100000000 cycles: 62814388726
L1D TOTAL     ACCESS:  599712792  HIT:  157641806  MISS:  442070986
L1D LOAD      ACCESS:  399713495  HIT:  104979318  MISS:  294734177
L1D RFO       ACCESS:  199999297  HIT:   52662488  MISS:  147336809
L1D PREFETCH  ACCESS:          0  HIT:          0  MISS:          0
L1D WRITEBACK ACCESS:          0  HIT:          0  MISS:          0
L1D PREFETCH  REQUESTED:          0  ISSUED:          0  USEFUL:          0  USELESS:          0
L1D AVERAGE MISS LATENCY: 115.084 cycles
L1I TOTAL     ACCESS:   99999980  HIT:   18937364  MISS:   81062616
L1I LOAD      ACCESS:   99999980  HIT:   18937364  MISS:   81062616
L1I RFO       ACCESS:          0  HIT:          0  MISS:          0
L1I PREFETCH  ACCESS:          0  HIT:          0  MISS:          0
L1I WRITEBACK ACCESS:          0  HIT:          0  MISS:          0
L1I PREFETCH  REQUESTED:          0  ISSUED:          0  USEFUL:          0  USELESS:          0
L1I AVERAGE MISS LATENCY: 76.3594 cycles
L2C TOTAL     ACCESS:  684482472  HIT:  303772420  MISS:  380710052
L2C LOAD      ACCESS:  375734028  HIT:  104034658  MISS:  271699370
L2C RFO       ACCESS:  147211182  HIT:   38606336  MISS:  108604846
L2C PREFETCH  ACCESS:          0  HIT:          0  MISS:          0
L2C WRITEBACK ACCESS:  161537262  HIT:  161131426  MISS:     405836
L2C PREFETCH  REQUESTED:          0  ISSUED:          0  USEFUL:          0  USELESS:          0
L2C AVERAGE MISS LATENCY: 110.785 cycles
LLC TOTAL     ACCESS:  515052352  HIT:  342903872  MISS:  172148480
LLC LOAD      ACCESS:  271696687  HIT:  165884687  MISS:  105812000
LLC RFO       ACCESS:  108604683  HIT:   66465163  MISS:   42139520
LLC PREFETCH  ACCESS:          0  HIT:          0  MISS:          0
LLC WRITEBACK ACCESS:  134750982  HIT:  110554022  MISS:   24196960
LLC PREFETCH  REQUESTED:          0  ISSUED:          0  USEFUL:          0  USELESS:          0
LLC AVERAGE MISS LATENCY: 155.685 cycles
Major fault: 0 Minor fault: 430913
==============================
Perceptron RRIP Stats:
   Num Updates: 515042109
   Num Trains:  52544607
==============================
perceptron #0: 1 1 1 -1 1 1 1 -1 -1 -1 -1 1 -1 -1 -1 -11 


DRAM Statistics
 CHANNEL 0
 RQ ROW_BUFFER_HIT:   13515319  ROW_BUFFER_MISS:  134431490
 DBUS_CONGESTED:   30497168
 WQ ROW_BUFFER_HIT:     631016  ROW_BUFFER_MISS:   54425665  FULL:          0

 AVG_CONGESTED_CYCLE: 5

CPU 0 Branch Prediction Accuracy: 0% MPKI: 1000 Average ROB Occupancy at Mispredict: 1.8e-07

Branch types
NOT_BRANCH: 99999970 100%
BRANCH_DIRECT_JUMP: 0 0%
BRANCH_INDIRECT: 0 0%
BRANCH_CONDITIONAL: 0 0%
BRANCH_DIRECT_CALL: 0 0%
BRANCH_INDIRECT_CALL: 0 0%
BRANCH_RETURN: 0 0%
BRANCH_OTHER: 0 0%

