
*** ChampSim Multicore Out-of-Order Simulator ***

Warmup Instructions: 0
Simulation Instructions: 100000000
Number of CPUs: 1
LLC sets: 2048
LLC ways: 16
Off-chip DRAM Size: 4096 MB Channels: 1 Width: 64-bit Data Rate: 3200 MT/s

CPU 0 runs /scratch/user/kevin.weston/dpc3-traces/cassandra.champsimtrace.gz
CPU 0 Bimodal branch predictor
Initialize DRRIP state
Assign rand_sets[0]: 454  LLC: 2048
rand_sets[0]: 454
Assign rand_sets[1]: 1662  LLC: 2048
rand_sets[1]: 1662
Assign rand_sets[2]: 1921  LLC: 2048
rand_sets[2]: 1921
Assign rand_sets[3]: 1131  LLC: 2048
rand_sets[3]: 1131
Assign rand_sets[4]: 331  LLC: 2048
rand_sets[4]: 331
Assign rand_sets[5]: 1531  LLC: 2048
rand_sets[5]: 1531
Assign rand_sets[6]: 482  LLC: 2048
rand_sets[6]: 482
Assign rand_sets[7]: 1275  LLC: 2048
rand_sets[7]: 1275
Assign rand_sets[8]: 1876  LLC: 2048
rand_sets[8]: 1876
Assign rand_sets[9]: 2038  LLC: 2048
rand_sets[9]: 2038
Assign rand_sets[10]: 701  LLC: 2048
rand_sets[10]: 701
Assign rand_sets[11]: 479  LLC: 2048
rand_sets[11]: 479
Assign rand_sets[12]: 892  LLC: 2048
rand_sets[12]: 892
Assign rand_sets[13]: 1820  LLC: 2048
rand_sets[13]: 1820
Assign rand_sets[14]: 1505  LLC: 2048
rand_sets[14]: 1505
Assign rand_sets[15]: 1159  LLC: 2048
rand_sets[15]: 1159
Assign rand_sets[16]: 513  LLC: 2048
rand_sets[16]: 513
Assign rand_sets[17]: 703  LLC: 2048
rand_sets[17]: 703
Assign rand_sets[18]: 561  LLC: 2048
rand_sets[18]: 561
Assign rand_sets[19]: 990  LLC: 2048
rand_sets[19]: 990
Assign rand_sets[20]: 342  LLC: 2048
rand_sets[20]: 342
Assign rand_sets[21]: 882  LLC: 2048
rand_sets[21]: 882
Assign rand_sets[22]: 15  LLC: 2048
rand_sets[22]: 15
Assign rand_sets[23]: 71  LLC: 2048
rand_sets[23]: 71
Assign rand_sets[24]: 1127  LLC: 2048
rand_sets[24]: 1127
Assign rand_sets[25]: 1382  LLC: 2048
rand_sets[25]: 1382
Assign rand_sets[26]: 647  LLC: 2048
rand_sets[26]: 647
Assign rand_sets[27]: 857  LLC: 2048
rand_sets[27]: 857
Assign rand_sets[28]: 1450  LLC: 2048
rand_sets[28]: 1450
Assign rand_sets[29]: 1160  LLC: 2048
rand_sets[29]: 1160
Assign rand_sets[30]: 1852  LLC: 2048
rand_sets[30]: 1852
Assign rand_sets[31]: 1881  LLC: 2048
rand_sets[31]: 1881
Assign rand_sets[32]: 1770  LLC: 2048
rand_sets[32]: 1770
Assign rand_sets[33]: 1622  LLC: 2048
rand_sets[33]: 1622
Assign rand_sets[34]: 275  LLC: 2048
rand_sets[34]: 275
Assign rand_sets[35]: 635  LLC: 2048
rand_sets[35]: 635
Assign rand_sets[36]: 466  LLC: 2048
rand_sets[36]: 466
Assign rand_sets[37]: 1413  LLC: 2048
rand_sets[37]: 1413
Assign rand_sets[38]: 417  LLC: 2048
rand_sets[38]: 417
Assign rand_sets[39]: 472  LLC: 2048
rand_sets[39]: 472
Assign rand_sets[40]: 1340  LLC: 2048
rand_sets[40]: 1340
Assign rand_sets[41]: 852  LLC: 2048
rand_sets[41]: 852
Assign rand_sets[42]: 1365  LLC: 2048
rand_sets[42]: 1365
Assign rand_sets[43]: 47  LLC: 2048
rand_sets[43]: 47
Assign rand_sets[44]: 823  LLC: 2048
rand_sets[44]: 823
Assign rand_sets[45]: 686  LLC: 2048
rand_sets[45]: 686
Assign rand_sets[46]: 1637  LLC: 2048
rand_sets[46]: 1637
Assign rand_sets[47]: 1115  LLC: 2048
rand_sets[47]: 1115
Assign rand_sets[48]: 986  LLC: 2048
rand_sets[48]: 986
Assign rand_sets[49]: 258  LLC: 2048
rand_sets[49]: 258
Assign rand_sets[50]: 633  LLC: 2048
rand_sets[50]: 633
Assign rand_sets[51]: 920  LLC: 2048
rand_sets[51]: 920
Assign rand_sets[52]: 204  LLC: 2048
rand_sets[52]: 204
Assign rand_sets[53]: 227  LLC: 2048
rand_sets[53]: 227
Assign rand_sets[54]: 1818  LLC: 2048
rand_sets[54]: 1818
Assign rand_sets[55]: 886  LLC: 2048
rand_sets[55]: 886
Assign rand_sets[56]: 1422  LLC: 2048
rand_sets[56]: 1422
Assign rand_sets[57]: 607  LLC: 2048
rand_sets[57]: 607
Assign rand_sets[58]: 217  LLC: 2048
rand_sets[58]: 217
Assign rand_sets[59]: 1945  LLC: 2048
rand_sets[59]: 1945
Assign rand_sets[60]: 143  LLC: 2048
rand_sets[60]: 143
Assign rand_sets[61]: 1311  LLC: 2048
rand_sets[61]: 1311
Assign rand_sets[62]: 319  LLC: 2048
rand_sets[62]: 319
Assign rand_sets[63]: 1846  LLC: 2048
rand_sets[63]: 1846

Warmup complete CPU 0 instructions: 2 cycles: 34 (Simulation time: 0 hr 0 min 0 sec) 

Heartbeat CPU 0 instructions: 10000000 cycles: 4723135477 heartbeat IPC: 0.00211724 cumulative IPC: 0.00211724 (Simulation time: 0 hr 8 min 11 sec) 
Heartbeat CPU 0 instructions: 20000000 cycles: 11453778623 heartbeat IPC: 0.00148574 cumulative IPC: 0.00174615 (Simulation time: 0 hr 21 min 35 sec) 
Heartbeat CPU 0 instructions: 30000000 cycles: 18207574440 heartbeat IPC: 0.00148065 cumulative IPC: 0.00164767 (Simulation time: 0 hr 35 min 14 sec) 
Heartbeat CPU 0 instructions: 40000000 cycles: 24685376053 heartbeat IPC: 0.00154373 cumulative IPC: 0.00162039 (Simulation time: 0 hr 47 min 54 sec) 
*** Reached end of trace for Core: 0 Repeating trace: /scratch/user/kevin.weston/dpc3-traces/cassandra.champsimtrace.gz
Heartbeat CPU 0 instructions: 50000000 cycles: 30072991450 heartbeat IPC: 0.00185611 cumulative IPC: 0.00166262 (Simulation time: 0 hr 57 min 56 sec) 
Heartbeat CPU 0 instructions: 60000000 cycles: 36090038057 heartbeat IPC: 0.00166194 cumulative IPC: 0.00166251 (Simulation time: 1 hr 9 min 31 sec) 
Heartbeat CPU 0 instructions: 70000000 cycles: 42879482736 heartbeat IPC: 0.00147287 cumulative IPC: 0.00163248 (Simulation time: 1 hr 23 min 5 sec) 
Heartbeat CPU 0 instructions: 80000000 cycles: 49422996426 heartbeat IPC: 0.00152823 cumulative IPC: 0.00161868 (Simulation time: 1 hr 35 min 48 sec) 
Heartbeat CPU 0 instructions: 90000000 cycles: 56100712390 heartbeat IPC: 0.00149752 cumulative IPC: 0.00160426 (Simulation time: 1 hr 48 min 51 sec) 
*** Reached end of trace for Core: 0 Repeating trace: /scratch/user/kevin.weston/dpc3-traces/cassandra.champsimtrace.gz
Heartbeat CPU 0 instructions: 100000000 cycles: 60799360091 heartbeat IPC: 0.00212827 cumulative IPC: 0.00164475 (Simulation time: 1 hr 57 min 0 sec) 
Finished CPU 0 instructions: 100000000 cycles: 60799361347 cumulative IPC: 0.00164475 (Simulation time: 1 hr 57 min 0 sec) 

ChampSim completed all CPUs

Region of Interest Statistics

CPU 0 cumulative IPC: 0.00164475 instructions: 100000000 cycles: 60799361347
L1D TOTAL     ACCESS:  599708695  HIT:  152789734  MISS:  446918961
L1D LOAD      ACCESS:  399710805  HIT:   99237093  MISS:  300473712
L1D RFO       ACCESS:  199997890  HIT:   53552641  MISS:  146445249
L1D PREFETCH  ACCESS:          0  HIT:          0  MISS:          0
L1D WRITEBACK ACCESS:          0  HIT:          0  MISS:          0
L1D PREFETCH  REQUESTED:          0  ISSUED:          0  USEFUL:          0  USELESS:          0
L1D AVERAGE MISS LATENCY: 106.189 cycles
L1I TOTAL     ACCESS:   99999973  HIT:   21728873  MISS:   78271100
L1I LOAD      ACCESS:   99999973  HIT:   21728873  MISS:   78271100
L1I RFO       ACCESS:          0  HIT:          0  MISS:          0
L1I PREFETCH  ACCESS:          0  HIT:          0  MISS:          0
L1I WRITEBACK ACCESS:          0  HIT:          0  MISS:          0
L1I PREFETCH  REQUESTED:          0  ISSUED:          0  USEFUL:          0  USELESS:          0
L1I AVERAGE MISS LATENCY: 79.5979 cycles
L2C TOTAL     ACCESS:  687374403  HIT:  356029978  MISS:  331344425
L2C LOAD      ACCESS:  378562982  HIT:  141245032  MISS:  237317950
L2C RFO       ACCESS:  146258927  HIT:   52308560  MISS:   93950367
L2C PREFETCH  ACCESS:          0  HIT:          0  MISS:          0
L2C WRITEBACK ACCESS:  162552494  HIT:  162476386  MISS:      76108
L2C PREFETCH  REQUESTED:          0  ISSUED:          0  USEFUL:          0  USELESS:          0
L2C AVERAGE MISS LATENCY: 125.894 cycles
LLC TOTAL     ACCESS:  450102541  HIT:  299622280  MISS:  150480261
LLC LOAD      ACCESS:  237291706  HIT:  148104566  MISS:   89187140
LLC RFO       ACCESS:   93867858  HIT:   58427375  MISS:   35440483
LLC PREFETCH  ACCESS:          0  HIT:          0  MISS:          0
LLC WRITEBACK ACCESS:  118942977  HIT:   93090339  MISS:   25852638
LLC PREFETCH  REQUESTED:          0  ISSUED:          0  USEFUL:          0  USELESS:          0
LLC AVERAGE MISS LATENCY: 160.267 cycles
Major fault: 0 Minor fault: 513003

DRAM Statistics
 CHANNEL 0
 RQ ROW_BUFFER_HIT:   10159709  ROW_BUFFER_MISS:  114465604
 DBUS_CONGESTED:   18377348
 WQ ROW_BUFFER_HIT:     598037  ROW_BUFFER_MISS:   40232890  FULL:          0

 AVG_CONGESTED_CYCLE: 5

CPU 0 Branch Prediction Accuracy: 0% MPKI: 1000 Average ROB Occupancy at Mispredict: 2.4e-07

Branch types
NOT_BRANCH: 99999964 100%
BRANCH_DIRECT_JUMP: 0 0%
BRANCH_INDIRECT: 0 0%
BRANCH_CONDITIONAL: 0 0%
BRANCH_DIRECT_CALL: 0 0%
BRANCH_INDIRECT_CALL: 0 0%
BRANCH_RETURN: 0 0%
BRANCH_OTHER: 0 0%

