
*** ChampSim Multicore Out-of-Order Simulator ***

Warmup Instructions: 0
Simulation Instructions: 100000000
Number of CPUs: 1
LLC sets: 2048
LLC ways: 16
Off-chip DRAM Size: 4096 MB Channels: 1 Width: 64-bit Data Rate: 3200 MT/s

CPU 0 runs /scratch/user/kevin.weston/dpc3-traces/chirper.champsimtrace.gz
CPU 0 Bimodal branch predictor
Initialize DRRIP state
Assign rand_sets[0]: 454  LLC: 2048
rand_sets[0]: 454
Assign rand_sets[1]: 1662  LLC: 2048
rand_sets[1]: 1662
Assign rand_sets[2]: 1921  LLC: 2048
rand_sets[2]: 1921
Assign rand_sets[3]: 1131  LLC: 2048
rand_sets[3]: 1131
Assign rand_sets[4]: 331  LLC: 2048
rand_sets[4]: 331
Assign rand_sets[5]: 1531  LLC: 2048
rand_sets[5]: 1531
Assign rand_sets[6]: 482  LLC: 2048
rand_sets[6]: 482
Assign rand_sets[7]: 1275  LLC: 2048
rand_sets[7]: 1275
Assign rand_sets[8]: 1876  LLC: 2048
rand_sets[8]: 1876
Assign rand_sets[9]: 2038  LLC: 2048
rand_sets[9]: 2038
Assign rand_sets[10]: 701  LLC: 2048
rand_sets[10]: 701
Assign rand_sets[11]: 479  LLC: 2048
rand_sets[11]: 479
Assign rand_sets[12]: 892  LLC: 2048
rand_sets[12]: 892
Assign rand_sets[13]: 1820  LLC: 2048
rand_sets[13]: 1820
Assign rand_sets[14]: 1505  LLC: 2048
rand_sets[14]: 1505
Assign rand_sets[15]: 1159  LLC: 2048
rand_sets[15]: 1159
Assign rand_sets[16]: 513  LLC: 2048
rand_sets[16]: 513
Assign rand_sets[17]: 703  LLC: 2048
rand_sets[17]: 703
Assign rand_sets[18]: 561  LLC: 2048
rand_sets[18]: 561
Assign rand_sets[19]: 990  LLC: 2048
rand_sets[19]: 990
Assign rand_sets[20]: 342  LLC: 2048
rand_sets[20]: 342
Assign rand_sets[21]: 882  LLC: 2048
rand_sets[21]: 882
Assign rand_sets[22]: 15  LLC: 2048
rand_sets[22]: 15
Assign rand_sets[23]: 71  LLC: 2048
rand_sets[23]: 71
Assign rand_sets[24]: 1127  LLC: 2048
rand_sets[24]: 1127
Assign rand_sets[25]: 1382  LLC: 2048
rand_sets[25]: 1382
Assign rand_sets[26]: 647  LLC: 2048
rand_sets[26]: 647
Assign rand_sets[27]: 857  LLC: 2048
rand_sets[27]: 857
Assign rand_sets[28]: 1450  LLC: 2048
rand_sets[28]: 1450
Assign rand_sets[29]: 1160  LLC: 2048
rand_sets[29]: 1160
Assign rand_sets[30]: 1852  LLC: 2048
rand_sets[30]: 1852
Assign rand_sets[31]: 1881  LLC: 2048
rand_sets[31]: 1881
Assign rand_sets[32]: 1770  LLC: 2048
rand_sets[32]: 1770
Assign rand_sets[33]: 1622  LLC: 2048
rand_sets[33]: 1622
Assign rand_sets[34]: 275  LLC: 2048
rand_sets[34]: 275
Assign rand_sets[35]: 635  LLC: 2048
rand_sets[35]: 635
Assign rand_sets[36]: 466  LLC: 2048
rand_sets[36]: 466
Assign rand_sets[37]: 1413  LLC: 2048
rand_sets[37]: 1413
Assign rand_sets[38]: 417  LLC: 2048
rand_sets[38]: 417
Assign rand_sets[39]: 472  LLC: 2048
rand_sets[39]: 472
Assign rand_sets[40]: 1340  LLC: 2048
rand_sets[40]: 1340
Assign rand_sets[41]: 852  LLC: 2048
rand_sets[41]: 852
Assign rand_sets[42]: 1365  LLC: 2048
rand_sets[42]: 1365
Assign rand_sets[43]: 47  LLC: 2048
rand_sets[43]: 47
Assign rand_sets[44]: 823  LLC: 2048
rand_sets[44]: 823
Assign rand_sets[45]: 686  LLC: 2048
rand_sets[45]: 686
Assign rand_sets[46]: 1637  LLC: 2048
rand_sets[46]: 1637
Assign rand_sets[47]: 1115  LLC: 2048
rand_sets[47]: 1115
Assign rand_sets[48]: 986  LLC: 2048
rand_sets[48]: 986
Assign rand_sets[49]: 258  LLC: 2048
rand_sets[49]: 258
Assign rand_sets[50]: 633  LLC: 2048
rand_sets[50]: 633
Assign rand_sets[51]: 920  LLC: 2048
rand_sets[51]: 920
Assign rand_sets[52]: 204  LLC: 2048
rand_sets[52]: 204
Assign rand_sets[53]: 227  LLC: 2048
rand_sets[53]: 227
Assign rand_sets[54]: 1818  LLC: 2048
rand_sets[54]: 1818
Assign rand_sets[55]: 886  LLC: 2048
rand_sets[55]: 886
Assign rand_sets[56]: 1422  LLC: 2048
rand_sets[56]: 1422
Assign rand_sets[57]: 607  LLC: 2048
rand_sets[57]: 607
Assign rand_sets[58]: 217  LLC: 2048
rand_sets[58]: 217
Assign rand_sets[59]: 1945  LLC: 2048
rand_sets[59]: 1945
Assign rand_sets[60]: 143  LLC: 2048
rand_sets[60]: 143
Assign rand_sets[61]: 1311  LLC: 2048
rand_sets[61]: 1311
Assign rand_sets[62]: 319  LLC: 2048
rand_sets[62]: 319
Assign rand_sets[63]: 1846  LLC: 2048
rand_sets[63]: 1846

Warmup complete CPU 0 instructions: 2 cycles: 31 (Simulation time: 0 hr 0 min 0 sec) 

Heartbeat CPU 0 instructions: 10000000 cycles: 6057172076 heartbeat IPC: 0.00165094 cumulative IPC: 0.00165094 (Simulation time: 0 hr 11 min 48 sec) 
Heartbeat CPU 0 instructions: 20000000 cycles: 12475427883 heartbeat IPC: 0.00155806 cumulative IPC: 0.00160315 (Simulation time: 0 hr 24 min 51 sec) 
Heartbeat CPU 0 instructions: 30000000 cycles: 19665151387 heartbeat IPC: 0.00139087 cumulative IPC: 0.00152554 (Simulation time: 0 hr 40 min 12 sec) 
Heartbeat CPU 0 instructions: 40000000 cycles: 25693214497 heartbeat IPC: 0.00165891 cumulative IPC: 0.00155683 (Simulation time: 0 hr 52 min 19 sec) 
*** Reached end of trace for Core: 0 Repeating trace: /scratch/user/kevin.weston/dpc3-traces/chirper.champsimtrace.gz
Heartbeat CPU 0 instructions: 50000000 cycles: 31289092845 heartbeat IPC: 0.00178703 cumulative IPC: 0.001598 (Simulation time: 1 hr 3 min 11 sec) 
Heartbeat CPU 0 instructions: 60000000 cycles: 37439068357 heartbeat IPC: 0.00162602 cumulative IPC: 0.0016026 (Simulation time: 1 hr 15 min 20 sec) 
Heartbeat CPU 0 instructions: 70000000 cycles: 44604144684 heartbeat IPC: 0.00139566 cumulative IPC: 0.00156936 (Simulation time: 1 hr 30 min 26 sec) 
Heartbeat CPU 0 instructions: 80000000 cycles: 51302219676 heartbeat IPC: 0.00149297 cumulative IPC: 0.00155939 (Simulation time: 1 hr 44 min 12 sec) 
*** Reached end of trace for Core: 0 Repeating trace: /scratch/user/kevin.weston/dpc3-traces/chirper.champsimtrace.gz
Heartbeat CPU 0 instructions: 90000000 cycles: 56403713934 heartbeat IPC: 0.00196021 cumulative IPC: 0.00159564 (Simulation time: 1 hr 53 min 36 sec) 
Heartbeat CPU 0 instructions: 100000000 cycles: 62441992862 heartbeat IPC: 0.0016561 cumulative IPC: 0.00160149 (Simulation time: 2 hr 5 min 8 sec) 
Finished CPU 0 instructions: 100000000 cycles: 62441993893 cumulative IPC: 0.00160149 (Simulation time: 2 hr 5 min 8 sec) 

ChampSim completed all CPUs

Region of Interest Statistics

CPU 0 cumulative IPC: 0.00160149 instructions: 100000000 cycles: 62441993893
L1D TOTAL     ACCESS:  599693779  HIT:  148774395  MISS:  450919384
L1D LOAD      ACCESS:  399701813  HIT:   98712765  MISS:  300989048
L1D RFO       ACCESS:  199991966  HIT:   50061630  MISS:  149930336
L1D PREFETCH  ACCESS:          0  HIT:          0  MISS:          0
L1D WRITEBACK ACCESS:          0  HIT:          0  MISS:          0
L1D PREFETCH  REQUESTED:          0  ISSUED:          0  USEFUL:          0  USELESS:          0
L1D AVERAGE MISS LATENCY: 113.025 cycles
L1I TOTAL     ACCESS:   99999977  HIT:   21065112  MISS:   78934865
L1I LOAD      ACCESS:   99999977  HIT:   21065112  MISS:   78934865
L1I RFO       ACCESS:          0  HIT:          0  MISS:          0
L1I PREFETCH  ACCESS:          0  HIT:          0  MISS:          0
L1I WRITEBACK ACCESS:          0  HIT:          0  MISS:          0
L1I PREFETCH  REQUESTED:          0  ISSUED:          0  USEFUL:          0  USELESS:          0
L1I AVERAGE MISS LATENCY: 86.6763 cycles
L2C TOTAL     ACCESS:  692603211  HIT:  343229157  MISS:  349374054
L2C LOAD      ACCESS:  379814299  HIT:  130122423  MISS:  249691876
L2C RFO       ACCESS:  149738866  HIT:   50135637  MISS:   99603229
L2C PREFETCH  ACCESS:          0  HIT:          0  MISS:          0
L2C WRITEBACK ACCESS:  163050046  HIT:  162971097  MISS:      78949
L2C PREFETCH  REQUESTED:          0  ISSUED:          0  USEFUL:          0  USELESS:          0
L2C AVERAGE MISS LATENCY: 131.153 cycles
LLC TOTAL     ACCESS:  473242179  HIT:  307998621  MISS:  165243558
LLC LOAD      ACCESS:  249659361  HIT:  152110480  MISS:   97548881
LLC RFO       ACCESS:   99553797  HIT:   60741393  MISS:   38812404
LLC PREFETCH  ACCESS:          0  HIT:          0  MISS:          0
LLC WRITEBACK ACCESS:  124029021  HIT:   95146748  MISS:   28882273
LLC PREFETCH  REQUESTED:          0  ISSUED:          0  USEFUL:          0  USELESS:          0
LLC AVERAGE MISS LATENCY: 167.187 cycles
Major fault: 0 Minor fault: 546422

DRAM Statistics
 CHANNEL 0
 RQ ROW_BUFFER_HIT:    9221968  ROW_BUFFER_MISS:  127136236
 DBUS_CONGESTED:   21228461
 WQ ROW_BUFFER_HIT:     504005  ROW_BUFFER_MISS:   44684703  FULL:          0

 AVG_CONGESTED_CYCLE: 5

CPU 0 Branch Prediction Accuracy: 0% MPKI: 1000 Average ROB Occupancy at Mispredict: 2.2e-07

Branch types
NOT_BRANCH: 99999967 100%
BRANCH_DIRECT_JUMP: 0 0%
BRANCH_INDIRECT: 0 0%
BRANCH_CONDITIONAL: 0 0%
BRANCH_DIRECT_CALL: 0 0%
BRANCH_INDIRECT_CALL: 0 0%
BRANCH_RETURN: 0 0%
BRANCH_OTHER: 0 0%

