
*** ChampSim Multicore Out-of-Order Simulator ***

Warmup Instructions: 0
Simulation Instructions: 100000000
Number of CPUs: 1
LLC sets: 2048
LLC ways: 16
Off-chip DRAM Size: 4096 MB Channels: 1 Width: 64-bit Data Rate: 3200 MT/s

CPU 0 runs /scratch/user/kevin.weston/dpc3-traces/chirper.champsimtrace.gz
CPU 0 Bimodal branch predictor
Initialize SRRIP state

Warmup complete CPU 0 instructions: 2 cycles: 31 (Simulation time: 0 hr 0 min 0 sec) 

Heartbeat CPU 0 instructions: 10000000 cycles: 6029962808 heartbeat IPC: 0.00165839 cumulative IPC: 0.00165838 (Simulation time: 0 hr 11 min 58 sec) 
Heartbeat CPU 0 instructions: 20000000 cycles: 12441606926 heartbeat IPC: 0.00155966 cumulative IPC: 0.00160751 (Simulation time: 0 hr 25 min 19 sec) 
Heartbeat CPU 0 instructions: 30000000 cycles: 19686217994 heartbeat IPC: 0.00138034 cumulative IPC: 0.00152391 (Simulation time: 0 hr 41 min 7 sec) 
Heartbeat CPU 0 instructions: 40000000 cycles: 25751577221 heartbeat IPC: 0.00164871 cumulative IPC: 0.0015533 (Simulation time: 0 hr 53 min 32 sec) 
*** Reached end of trace for Core: 0 Repeating trace: /scratch/user/kevin.weston/dpc3-traces/chirper.champsimtrace.gz
Heartbeat CPU 0 instructions: 50000000 cycles: 31345512699 heartbeat IPC: 0.00178765 cumulative IPC: 0.00159512 (Simulation time: 1 hr 4 min 32 sec) 
Heartbeat CPU 0 instructions: 60000000 cycles: 37474056823 heartbeat IPC: 0.00163171 cumulative IPC: 0.00160111 (Simulation time: 1 hr 16 min 50 sec) 
Heartbeat CPU 0 instructions: 70000000 cycles: 44689382988 heartbeat IPC: 0.00138594 cumulative IPC: 0.00156637 (Simulation time: 1 hr 32 min 31 sec) 
Heartbeat CPU 0 instructions: 80000000 cycles: 51427296946 heartbeat IPC: 0.00148414 cumulative IPC: 0.00155559 (Simulation time: 1 hr 46 min 49 sec) 
*** Reached end of trace for Core: 0 Repeating trace: /scratch/user/kevin.weston/dpc3-traces/chirper.champsimtrace.gz
Heartbeat CPU 0 instructions: 90000000 cycles: 56544589038 heartbeat IPC: 0.00195416 cumulative IPC: 0.00159166 (Simulation time: 1 hr 56 min 29 sec) 
Heartbeat CPU 0 instructions: 100000000 cycles: 62545691485 heartbeat IPC: 0.00166636 cumulative IPC: 0.00159883 (Simulation time: 2 hr 8 min 13 sec) 
Finished CPU 0 instructions: 100000000 cycles: 62545692476 cumulative IPC: 0.00159883 (Simulation time: 2 hr 8 min 13 sec) 

ChampSim completed all CPUs

Region of Interest Statistics

CPU 0 cumulative IPC: 0.00159883 instructions: 100000000 cycles: 62545692476
L1D TOTAL     ACCESS:  599693355  HIT:  148776908  MISS:  450916447
L1D LOAD      ACCESS:  399701415  HIT:   98714909  MISS:  300986506
L1D RFO       ACCESS:  199991940  HIT:   50061999  MISS:  149929941
L1D PREFETCH  ACCESS:          0  HIT:          0  MISS:          0
L1D WRITEBACK ACCESS:          0  HIT:          0  MISS:          0
L1D PREFETCH  REQUESTED:          0  ISSUED:          0  USEFUL:          0  USELESS:          0
L1D AVERAGE MISS LATENCY: 114.48 cycles
L1I TOTAL     ACCESS:   99999977  HIT:   21065112  MISS:   78934865
L1I LOAD      ACCESS:   99999977  HIT:   21065112  MISS:   78934865
L1I RFO       ACCESS:          0  HIT:          0  MISS:          0
L1I PREFETCH  ACCESS:          0  HIT:          0  MISS:          0
L1I WRITEBACK ACCESS:          0  HIT:          0  MISS:          0
L1I PREFETCH  REQUESTED:          0  ISSUED:          0  USEFUL:          0  USELESS:          0
L1I AVERAGE MISS LATENCY: 87.8255 cycles
L2C TOTAL     ACCESS:  692595425  HIT:  340569895  MISS:  352025530
L2C LOAD      ACCESS:  379808355  HIT:  128206881  MISS:  251601474
L2C RFO       ACCESS:  149737480  HIT:   49390748  MISS:  100346732
L2C PREFETCH  ACCESS:          0  HIT:          0  MISS:          0
L2C WRITEBACK ACCESS:  163049590  HIT:  162972266  MISS:      77324
L2C PREFETCH  REQUESTED:          0  ISSUED:          0  USEFUL:          0  USELESS:          0
L2C AVERAGE MISS LATENCY: 132.215 cycles
LLC TOTAL     ACCESS:  476673959  HIT:  339134130  MISS:  137539829
LLC LOAD      ACCESS:  251568915  HIT:  153460958  MISS:   98107957
LLC RFO       ACCESS:  100293039  HIT:   61224310  MISS:   39068729
LLC PREFETCH  ACCESS:          0  HIT:          0  MISS:          0
LLC WRITEBACK ACCESS:  124812005  HIT:  124448862  MISS:     363143
LLC PREFETCH  REQUESTED:          0  ISSUED:          0  USEFUL:          0  USELESS:          0
LLC AVERAGE MISS LATENCY: 204.996 cycles
Major fault: 0 Minor fault: 546422

DRAM Statistics
 CHANNEL 0
 RQ ROW_BUFFER_HIT:    8271394  ROW_BUFFER_MISS:  128899964
 DBUS_CONGESTED:   23389121
 WQ ROW_BUFFER_HIT:     594932  ROW_BUFFER_MISS:   51484883  FULL:          0

 AVG_CONGESTED_CYCLE: 6

CPU 0 Branch Prediction Accuracy: 0% MPKI: 1000 Average ROB Occupancy at Mispredict: 2.2e-07

Branch types
NOT_BRANCH: 99999967 100%
BRANCH_DIRECT_JUMP: 0 0%
BRANCH_INDIRECT: 0 0%
BRANCH_CONDITIONAL: 0 0%
BRANCH_DIRECT_CALL: 0 0%
BRANCH_INDIRECT_CALL: 0 0%
BRANCH_RETURN: 0 0%
BRANCH_OTHER: 0 0%

