
*** ChampSim Multicore Out-of-Order Simulator ***

Warmup Instructions: 0
Simulation Instructions: 100000000
Number of CPUs: 1
LLC sets: 2048
LLC ways: 16
Off-chip DRAM Size: 4096 MB Channels: 1 Width: 64-bit Data Rate: 3200 MT/s

CPU 0 runs /scratch/user/kevin.weston/dpc3-traces/drupal.champsimtrace.gz
CPU 0 Bimodal branch predictor

Warmup complete CPU 0 instructions: 2 cycles: 31 (Simulation time: 0 hr 0 min 0 sec) 

Heartbeat CPU 0 instructions: 10000000 cycles: 6386872613 heartbeat IPC: 0.00156571 cumulative IPC: 0.00156571 (Simulation time: 0 hr 14 min 43 sec) 
Heartbeat CPU 0 instructions: 20000000 cycles: 12576682339 heartbeat IPC: 0.00161556 cumulative IPC: 0.00159024 (Simulation time: 0 hr 29 min 3 sec) 
Heartbeat CPU 0 instructions: 30000000 cycles: 18860667353 heartbeat IPC: 0.00159135 cumulative IPC: 0.00159061 (Simulation time: 0 hr 43 min 31 sec) 
Heartbeat CPU 0 instructions: 40000000 cycles: 25330971624 heartbeat IPC: 0.00154552 cumulative IPC: 0.00157909 (Simulation time: 0 hr 58 min 4 sec) 
*** Reached end of trace for Core: 0 Repeating trace: /scratch/user/kevin.weston/dpc3-traces/drupal.champsimtrace.gz
Heartbeat CPU 0 instructions: 50000000 cycles: 31729058533 heartbeat IPC: 0.00156297 cumulative IPC: 0.00157584 (Simulation time: 1 hr 12 min 29 sec) 
Heartbeat CPU 0 instructions: 60000000 cycles: 37978691204 heartbeat IPC: 0.00160009 cumulative IPC: 0.00157983 (Simulation time: 1 hr 26 min 36 sec) 
Heartbeat CPU 0 instructions: 70000000 cycles: 44179274387 heartbeat IPC: 0.00161275 cumulative IPC: 0.00158445 (Simulation time: 1 hr 40 min 37 sec) 
Heartbeat CPU 0 instructions: 80000000 cycles: 50530071980 heartbeat IPC: 0.00157461 cumulative IPC: 0.00158322 (Simulation time: 1 hr 54 min 53 sec) 
*** Reached end of trace for Core: 0 Repeating trace: /scratch/user/kevin.weston/dpc3-traces/drupal.champsimtrace.gz
Heartbeat CPU 0 instructions: 90000000 cycles: 57050498598 heartbeat IPC: 0.00153364 cumulative IPC: 0.00157755 (Simulation time: 2 hr 9 min 34 sec) 
Heartbeat CPU 0 instructions: 100000000 cycles: 63415277825 heartbeat IPC: 0.00157115 cumulative IPC: 0.00157691 (Simulation time: 2 hr 23 min 24 sec) 
Finished CPU 0 instructions: 100000000 cycles: 63415279226 cumulative IPC: 0.00157691 (Simulation time: 2 hr 23 min 24 sec) 

ChampSim completed all CPUs

Region of Interest Statistics

CPU 0 cumulative IPC: 0.00157691 instructions: 100000000 cycles: 63415279226
L1D TOTAL     ACCESS:  599783007  HIT:  143984661  MISS:  455798346
L1D LOAD      ACCESS:  399784318  HIT:   95608443  MISS:  304175875
L1D RFO       ACCESS:  199998689  HIT:   48376218  MISS:  151622471
L1D PREFETCH  ACCESS:          0  HIT:          0  MISS:          0
L1D WRITEBACK ACCESS:          0  HIT:          0  MISS:          0
L1D PREFETCH  REQUESTED:          0  ISSUED:          0  USEFUL:          0  USELESS:          0
L1D AVERAGE MISS LATENCY: 115.979 cycles
L1I TOTAL     ACCESS:   99999977  HIT:   19835346  MISS:   80164631
L1I LOAD      ACCESS:   99999977  HIT:   19835346  MISS:   80164631
L1I RFO       ACCESS:          0  HIT:          0  MISS:          0
L1I PREFETCH  ACCESS:          0  HIT:          0  MISS:          0
L1I WRITEBACK ACCESS:          0  HIT:          0  MISS:          0
L1I PREFETCH  REQUESTED:          0  ISSUED:          0  USEFUL:          0  USELESS:          0
L1I AVERAGE MISS LATENCY: 88.4375 cycles
L2C TOTAL     ACCESS:  700202753  HIT:  333438078  MISS:  366764675
L2C LOAD      ACCESS:  384228947  HIT:  122081757  MISS:  262147190
L2C RFO       ACCESS:  151486574  HIT:   46962023  MISS:  104524551
L2C PREFETCH  ACCESS:          0  HIT:          0  MISS:          0
L2C WRITEBACK ACCESS:  164487232  HIT:  164394298  MISS:      92934
L2C PREFETCH  REQUESTED:          0  ISSUED:          0  USEFUL:          0  USELESS:          0
L2C AVERAGE MISS LATENCY: 130.298 cycles
LLC TOTAL     ACCESS:  495002727  HIT:  350702959  MISS:  144299768
LLC LOAD      ACCESS:  262117958  HIT:  158942812  MISS:  103175146
LLC RFO       ACCESS:  104485264  HIT:   63417806  MISS:   41067458
LLC PREFETCH  ACCESS:          0  HIT:          0  MISS:          0
LLC WRITEBACK ACCESS:  128399505  HIT:  128342341  MISS:      57164
LLC PREFETCH  REQUESTED:          0  ISSUED:          0  USEFUL:          0  USELESS:          0
LLC AVERAGE MISS LATENCY: 199.498 cycles
Major fault: 0 Minor fault: 470492

DRAM Statistics
 CHANNEL 0
 RQ ROW_BUFFER_HIT:   11206775  ROW_BUFFER_MISS:  133026628
 DBUS_CONGESTED:   31523644
 WQ ROW_BUFFER_HIT:     856749  ROW_BUFFER_MISS:   62681870  FULL:          0

 AVG_CONGESTED_CYCLE: 6

CPU 0 Branch Prediction Accuracy: 0% MPKI: 1000 Average ROB Occupancy at Mispredict: 2.2e-07

Branch types
NOT_BRANCH: 99999967 100%
BRANCH_DIRECT_JUMP: 0 0%
BRANCH_INDIRECT: 0 0%
BRANCH_CONDITIONAL: 0 0%
BRANCH_DIRECT_CALL: 0 0%
BRANCH_INDIRECT_CALL: 0 0%
BRANCH_RETURN: 0 0%
BRANCH_OTHER: 0 0%

