
*** ChampSim Multicore Out-of-Order Simulator ***

Warmup Instructions: 0
Simulation Instructions: 100000000
Number of CPUs: 1
LLC sets: 2048
LLC ways: 16
Off-chip DRAM Size: 4096 MB Channels: 1 Width: 64-bit Data Rate: 3200 MT/s

CPU 0 runs /scratch/user/kevin.weston/dpc3-traces/drupal.champsimtrace.gz
CPU 0 Bimodal branch predictor
Initialized L1I PRRIP

Warmup complete CPU 0 instructions: 2 cycles: 31 (Simulation time: 0 hr 0 min 0 sec) 

Heartbeat CPU 0 instructions: 10000000 cycles: 6379976906 heartbeat IPC: 0.0015674 cumulative IPC: 0.0015674 (Simulation time: 0 hr 13 min 24 sec) 
Heartbeat CPU 0 instructions: 20000000 cycles: 12562155464 heartbeat IPC: 0.00161755 cumulative IPC: 0.00159208 (Simulation time: 0 hr 26 min 25 sec) 
Heartbeat CPU 0 instructions: 30000000 cycles: 18839283748 heartbeat IPC: 0.00159309 cumulative IPC: 0.00159242 (Simulation time: 0 hr 39 min 47 sec) 
Heartbeat CPU 0 instructions: 40000000 cycles: 25302427725 heartbeat IPC: 0.00154723 cumulative IPC: 0.00158088 (Simulation time: 0 hr 53 min 30 sec) 
*** Reached end of trace for Core: 0 Repeating trace: /scratch/user/kevin.weston/dpc3-traces/drupal.champsimtrace.gz
Heartbeat CPU 0 instructions: 50000000 cycles: 31693518235 heartbeat IPC: 0.00156468 cumulative IPC: 0.00157761 (Simulation time: 1 hr 6 min 56 sec) 
Heartbeat CPU 0 instructions: 60000000 cycles: 37935786257 heartbeat IPC: 0.00160198 cumulative IPC: 0.00158162 (Simulation time: 1 hr 19 min 57 sec) 
Heartbeat CPU 0 instructions: 70000000 cycles: 44129043989 heartbeat IPC: 0.00161466 cumulative IPC: 0.00158626 (Simulation time: 1 hr 32 min 59 sec) 
Heartbeat CPU 0 instructions: 80000000 cycles: 50472774097 heartbeat IPC: 0.00157636 cumulative IPC: 0.00158501 (Simulation time: 1 hr 46 min 16 sec) 
*** Reached end of trace for Core: 0 Repeating trace: /scratch/user/kevin.weston/dpc3-traces/drupal.champsimtrace.gz
Heartbeat CPU 0 instructions: 90000000 cycles: 56986276810 heartbeat IPC: 0.00153527 cumulative IPC: 0.00157933 (Simulation time: 2 hr 0 min 2 sec) 
Heartbeat CPU 0 instructions: 100000000 cycles: 63344284112 heartbeat IPC: 0.00157282 cumulative IPC: 0.00157867 (Simulation time: 2 hr 13 min 25 sec) 
Finished CPU 0 instructions: 100000000 cycles: 63344285513 cumulative IPC: 0.00157867 (Simulation time: 2 hr 13 min 25 sec) 

ChampSim completed all CPUs

Region of Interest Statistics

CPU 0 cumulative IPC: 0.00157867 instructions: 100000000 cycles: 63344285513
L1D TOTAL     ACCESS:  599775497  HIT:  143977908  MISS:  455797589
L1D LOAD      ACCESS:  399776794  HIT:   95601819  MISS:  304174975
L1D RFO       ACCESS:  199998703  HIT:   48376089  MISS:  151622614
L1D PREFETCH  ACCESS:          0  HIT:          0  MISS:          0
L1D WRITEBACK ACCESS:          0  HIT:          0  MISS:          0
L1D PREFETCH  REQUESTED:          0  ISSUED:          0  USEFUL:          0  USELESS:          0
L1D AVERAGE MISS LATENCY: 116.354 cycles
L1I TOTAL     ACCESS:   99999977  HIT:   22554789  MISS:   77445188
L1I LOAD      ACCESS:   99999977  HIT:   22554789  MISS:   77445188
L1I RFO       ACCESS:          0  HIT:          0  MISS:          0
L1I PREFETCH  ACCESS:          0  HIT:          0  MISS:          0
L1I WRITEBACK ACCESS:          0  HIT:          0  MISS:          0
L1I PREFETCH  REQUESTED:          0  ISSUED:          0  USEFUL:          0  USELESS:          0
L1I AVERAGE MISS LATENCY: 90.6055 cycles
L2C TOTAL     ACCESS:  697490348  HIT:  331095812  MISS:  366394536
L2C LOAD      ACCESS:  381514235  HIT:  119958211  MISS:  261556024
L2C RFO       ACCESS:  151488889  HIT:   46768847  MISS:  104720042
L2C PREFETCH  ACCESS:          0  HIT:          0  MISS:          0
L2C WRITEBACK ACCESS:  164487224  HIT:  164368754  MISS:     118470
L2C PREFETCH  REQUESTED:          0  ISSUED:          0  USEFUL:          0  USELESS:          0
L2C AVERAGE MISS LATENCY: 130.573 cycles
LLC TOTAL     ACCESS:  494725754  HIT:  350419874  MISS:  144305880
LLC LOAD      ACCESS:  261530614  HIT:  158350091  MISS:  103180523
LLC RFO       ACCESS:  104680605  HIT:   63607792  MISS:   41072813
LLC PREFETCH  ACCESS:          0  HIT:          0  MISS:          0
LLC WRITEBACK ACCESS:  128514535  HIT:  128461991  MISS:      52544
LLC PREFETCH  REQUESTED:          0  ISSUED:          0  USEFUL:          0  USELESS:          0
LLC AVERAGE MISS LATENCY: 199.511 cycles
Major fault: 0 Minor fault: 470492

DRAM Statistics
 CHANNEL 0
 RQ ROW_BUFFER_HIT:   11203910  ROW_BUFFER_MISS:  133040180
 DBUS_CONGESTED:   31532310
 WQ ROW_BUFFER_HIT:     870428  ROW_BUFFER_MISS:   62673115  FULL:          0

 AVG_CONGESTED_CYCLE: 6

CPU 0 Branch Prediction Accuracy: 0% MPKI: 1000 Average ROB Occupancy at Mispredict: 2.2e-07

Branch types
NOT_BRANCH: 99999967 100%
BRANCH_DIRECT_JUMP: 0 0%
BRANCH_INDIRECT: 0 0%
BRANCH_CONDITIONAL: 0 0%
BRANCH_DIRECT_CALL: 0 0%
BRANCH_INDIRECT_CALL: 0 0%
BRANCH_RETURN: 0 0%
BRANCH_OTHER: 0 0%

