
*** ChampSim Multicore Out-of-Order Simulator ***

Warmup Instructions: 0
Simulation Instructions: 100000000
Number of CPUs: 1
LLC sets: 2048
LLC ways: 16
Off-chip DRAM Size: 4096 MB Channels: 1 Width: 64-bit Data Rate: 3200 MT/s

CPU 0 runs /scratch/user/kevin.weston/dpc3-traces/http.champsimtrace.gz
CPU 0 Bimodal branch predictor
Initialized L1I PRRIP

Warmup complete CPU 0 instructions: 2 cycles: 34 (Simulation time: 0 hr 0 min 0 sec) 

Heartbeat CPU 0 instructions: 10000000 cycles: 4619611038 heartbeat IPC: 0.00216468 cumulative IPC: 0.00216468 (Simulation time: 0 hr 8 min 40 sec) 
Heartbeat CPU 0 instructions: 20000000 cycles: 11627665721 heartbeat IPC: 0.00142693 cumulative IPC: 0.00172004 (Simulation time: 0 hr 24 min 11 sec) 
Heartbeat CPU 0 instructions: 30000000 cycles: 18335832551 heartbeat IPC: 0.00149072 cumulative IPC: 0.00163614 (Simulation time: 0 hr 39 min 2 sec) 
Heartbeat CPU 0 instructions: 40000000 cycles: 23015912992 heartbeat IPC: 0.00213672 cumulative IPC: 0.00173793 (Simulation time: 0 hr 48 min 14 sec) 
*** Reached end of trace for Core: 0 Repeating trace: /scratch/user/kevin.weston/dpc3-traces/http.champsimtrace.gz
Heartbeat CPU 0 instructions: 50000000 cycles: 27042655437 heartbeat IPC: 0.0024834 cumulative IPC: 0.00184893 (Simulation time: 0 hr 55 min 31 sec) 
Heartbeat CPU 0 instructions: 60000000 cycles: 33981755156 heartbeat IPC: 0.00144111 cumulative IPC: 0.00176565 (Simulation time: 1 hr 10 min 35 sec) 
Heartbeat CPU 0 instructions: 70000000 cycles: 40805542064 heartbeat IPC: 0.00146546 cumulative IPC: 0.00171545 (Simulation time: 1 hr 25 min 30 sec) 
Heartbeat CPU 0 instructions: 80000000 cycles: 46045289093 heartbeat IPC: 0.00190849 cumulative IPC: 0.00173742 (Simulation time: 1 hr 36 min 7 sec) 
*** Reached end of trace for Core: 0 Repeating trace: /scratch/user/kevin.weston/dpc3-traces/http.champsimtrace.gz
Heartbeat CPU 0 instructions: 90000000 cycles: 49817363419 heartbeat IPC: 0.00265106 cumulative IPC: 0.0018066 (Simulation time: 1 hr 42 min 42 sec) 
Heartbeat CPU 0 instructions: 100000000 cycles: 56313350748 heartbeat IPC: 0.00153941 cumulative IPC: 0.00177578 (Simulation time: 1 hr 56 min 29 sec) 
Finished CPU 0 instructions: 100000000 cycles: 56313351954 cumulative IPC: 0.00177578 (Simulation time: 1 hr 56 min 29 sec) 

ChampSim completed all CPUs

Region of Interest Statistics

CPU 0 cumulative IPC: 0.00177578 instructions: 100000000 cycles: 56313351954
L1D TOTAL     ACCESS:  599775021  HIT:  174581603  MISS:  425193418
L1D LOAD      ACCESS:  399783798  HIT:  115812204  MISS:  283971594
L1D RFO       ACCESS:  199991223  HIT:   58769399  MISS:  141221824
L1D PREFETCH  ACCESS:          0  HIT:          0  MISS:          0
L1D WRITEBACK ACCESS:          0  HIT:          0  MISS:          0
L1D PREFETCH  REQUESTED:          0  ISSUED:          0  USEFUL:          0  USELESS:          0
L1D AVERAGE MISS LATENCY: 104.307 cycles
L1I TOTAL     ACCESS:   99999974  HIT:   28726508  MISS:   71273466
L1I LOAD      ACCESS:   99999974  HIT:   28726508  MISS:   71273466
L1I RFO       ACCESS:          0  HIT:          0  MISS:          0
L1I PREFETCH  ACCESS:          0  HIT:          0  MISS:          0
L1I WRITEBACK ACCESS:          0  HIT:          0  MISS:          0
L1I PREFETCH  REQUESTED:          0  ISSUED:          0  USEFUL:          0  USELESS:          0
L1I AVERAGE MISS LATENCY: 84.5861 cycles
L2C TOTAL     ACCESS:  648599525  HIT:  365219098  MISS:  283380427
L2C LOAD      ACCESS:  355185925  HIT:  152688637  MISS:  202497288
L2C RFO       ACCESS:  140971072  HIT:   60147230  MISS:   80823842
L2C PREFETCH  ACCESS:          0  HIT:          0  MISS:          0
L2C WRITEBACK ACCESS:  152442528  HIT:  152383231  MISS:      59297
L2C PREFETCH  REQUESTED:          0  ISSUED:          0  USEFUL:          0  USELESS:          0
L2C AVERAGE MISS LATENCY: 140.26 cycles
LLC TOTAL     ACCESS:  385059388  HIT:  260117536  MISS:  124941852
LLC LOAD      ACCESS:  202473329  HIT:  113099447  MISS:   89373882
LLC RFO       ACCESS:   80696952  HIT:   45175093  MISS:   35521859
LLC PREFETCH  ACCESS:          0  HIT:          0  MISS:          0
LLC WRITEBACK ACCESS:  101889107  HIT:  101842996  MISS:      46111
LLC PREFETCH  REQUESTED:          0  ISSUED:          0  USEFUL:          0  USELESS:          0
LLC AVERAGE MISS LATENCY: 199.332 cycles
Major fault: 0 Minor fault: 546925

DRAM Statistics
 CHANNEL 0
 RQ ROW_BUFFER_HIT:    6738308  ROW_BUFFER_MISS:  118152498
 DBUS_CONGESTED:   30851031
 WQ ROW_BUFFER_HIT:     732742  ROW_BUFFER_MISS:   49745456  FULL:          0

 AVG_CONGESTED_CYCLE: 6

CPU 0 Branch Prediction Accuracy: 0% MPKI: 1000 Average ROB Occupancy at Mispredict: 2.5e-07

Branch types
NOT_BRANCH: 99999964 100%
BRANCH_DIRECT_JUMP: 0 0%
BRANCH_INDIRECT: 0 0%
BRANCH_CONDITIONAL: 0 0%
BRANCH_DIRECT_CALL: 0 0%
BRANCH_INDIRECT_CALL: 0 0%
BRANCH_RETURN: 0 0%
BRANCH_OTHER: 0 0%

