
*** ChampSim Multicore Out-of-Order Simulator ***

Warmup Instructions: 0
Simulation Instructions: 100000000
Number of CPUs: 1
LLC sets: 2048
LLC ways: 16
Off-chip DRAM Size: 4096 MB Channels: 1 Width: 64-bit Data Rate: 3200 MT/s

CPU 0 runs /scratch/user/kevin.weston/dpc3-traces/http.champsimtrace.gz
CPU 0 Bimodal branch predictor
Initialize DRRIP state
Assign rand_sets[0]: 454  LLC: 2048
rand_sets[0]: 454
Assign rand_sets[1]: 1662  LLC: 2048
rand_sets[1]: 1662
Assign rand_sets[2]: 1921  LLC: 2048
rand_sets[2]: 1921
Assign rand_sets[3]: 1131  LLC: 2048
rand_sets[3]: 1131
Assign rand_sets[4]: 331  LLC: 2048
rand_sets[4]: 331
Assign rand_sets[5]: 1531  LLC: 2048
rand_sets[5]: 1531
Assign rand_sets[6]: 482  LLC: 2048
rand_sets[6]: 482
Assign rand_sets[7]: 1275  LLC: 2048
rand_sets[7]: 1275
Assign rand_sets[8]: 1876  LLC: 2048
rand_sets[8]: 1876
Assign rand_sets[9]: 2038  LLC: 2048
rand_sets[9]: 2038
Assign rand_sets[10]: 701  LLC: 2048
rand_sets[10]: 701
Assign rand_sets[11]: 479  LLC: 2048
rand_sets[11]: 479
Assign rand_sets[12]: 892  LLC: 2048
rand_sets[12]: 892
Assign rand_sets[13]: 1820  LLC: 2048
rand_sets[13]: 1820
Assign rand_sets[14]: 1505  LLC: 2048
rand_sets[14]: 1505
Assign rand_sets[15]: 1159  LLC: 2048
rand_sets[15]: 1159
Assign rand_sets[16]: 513  LLC: 2048
rand_sets[16]: 513
Assign rand_sets[17]: 703  LLC: 2048
rand_sets[17]: 703
Assign rand_sets[18]: 561  LLC: 2048
rand_sets[18]: 561
Assign rand_sets[19]: 990  LLC: 2048
rand_sets[19]: 990
Assign rand_sets[20]: 342  LLC: 2048
rand_sets[20]: 342
Assign rand_sets[21]: 882  LLC: 2048
rand_sets[21]: 882
Assign rand_sets[22]: 15  LLC: 2048
rand_sets[22]: 15
Assign rand_sets[23]: 71  LLC: 2048
rand_sets[23]: 71
Assign rand_sets[24]: 1127  LLC: 2048
rand_sets[24]: 1127
Assign rand_sets[25]: 1382  LLC: 2048
rand_sets[25]: 1382
Assign rand_sets[26]: 647  LLC: 2048
rand_sets[26]: 647
Assign rand_sets[27]: 857  LLC: 2048
rand_sets[27]: 857
Assign rand_sets[28]: 1450  LLC: 2048
rand_sets[28]: 1450
Assign rand_sets[29]: 1160  LLC: 2048
rand_sets[29]: 1160
Assign rand_sets[30]: 1852  LLC: 2048
rand_sets[30]: 1852
Assign rand_sets[31]: 1881  LLC: 2048
rand_sets[31]: 1881
Assign rand_sets[32]: 1770  LLC: 2048
rand_sets[32]: 1770
Assign rand_sets[33]: 1622  LLC: 2048
rand_sets[33]: 1622
Assign rand_sets[34]: 275  LLC: 2048
rand_sets[34]: 275
Assign rand_sets[35]: 635  LLC: 2048
rand_sets[35]: 635
Assign rand_sets[36]: 466  LLC: 2048
rand_sets[36]: 466
Assign rand_sets[37]: 1413  LLC: 2048
rand_sets[37]: 1413
Assign rand_sets[38]: 417  LLC: 2048
rand_sets[38]: 417
Assign rand_sets[39]: 472  LLC: 2048
rand_sets[39]: 472
Assign rand_sets[40]: 1340  LLC: 2048
rand_sets[40]: 1340
Assign rand_sets[41]: 852  LLC: 2048
rand_sets[41]: 852
Assign rand_sets[42]: 1365  LLC: 2048
rand_sets[42]: 1365
Assign rand_sets[43]: 47  LLC: 2048
rand_sets[43]: 47
Assign rand_sets[44]: 823  LLC: 2048
rand_sets[44]: 823
Assign rand_sets[45]: 686  LLC: 2048
rand_sets[45]: 686
Assign rand_sets[46]: 1637  LLC: 2048
rand_sets[46]: 1637
Assign rand_sets[47]: 1115  LLC: 2048
rand_sets[47]: 1115
Assign rand_sets[48]: 986  LLC: 2048
rand_sets[48]: 986
Assign rand_sets[49]: 258  LLC: 2048
rand_sets[49]: 258
Assign rand_sets[50]: 633  LLC: 2048
rand_sets[50]: 633
Assign rand_sets[51]: 920  LLC: 2048
rand_sets[51]: 920
Assign rand_sets[52]: 204  LLC: 2048
rand_sets[52]: 204
Assign rand_sets[53]: 227  LLC: 2048
rand_sets[53]: 227
Assign rand_sets[54]: 1818  LLC: 2048
rand_sets[54]: 1818
Assign rand_sets[55]: 886  LLC: 2048
rand_sets[55]: 886
Assign rand_sets[56]: 1422  LLC: 2048
rand_sets[56]: 1422
Assign rand_sets[57]: 607  LLC: 2048
rand_sets[57]: 607
Assign rand_sets[58]: 217  LLC: 2048
rand_sets[58]: 217
Assign rand_sets[59]: 1945  LLC: 2048
rand_sets[59]: 1945
Assign rand_sets[60]: 143  LLC: 2048
rand_sets[60]: 143
Assign rand_sets[61]: 1311  LLC: 2048
rand_sets[61]: 1311
Assign rand_sets[62]: 319  LLC: 2048
rand_sets[62]: 319
Assign rand_sets[63]: 1846  LLC: 2048
rand_sets[63]: 1846

Warmup complete CPU 0 instructions: 2 cycles: 34 (Simulation time: 0 hr 0 min 0 sec) 

Heartbeat CPU 0 instructions: 10000000 cycles: 4648330007 heartbeat IPC: 0.00215131 cumulative IPC: 0.00215131 (Simulation time: 0 hr 8 min 14 sec) 
Heartbeat CPU 0 instructions: 20000000 cycles: 11567546609 heartbeat IPC: 0.00144525 cumulative IPC: 0.00172897 (Simulation time: 0 hr 22 min 33 sec) 
Heartbeat CPU 0 instructions: 30000000 cycles: 18196965579 heartbeat IPC: 0.00150843 cumulative IPC: 0.00164863 (Simulation time: 0 hr 36 min 17 sec) 
Heartbeat CPU 0 instructions: 40000000 cycles: 22860894586 heartbeat IPC: 0.00214412 cumulative IPC: 0.00174971 (Simulation time: 0 hr 44 min 55 sec) 
*** Reached end of trace for Core: 0 Repeating trace: /scratch/user/kevin.weston/dpc3-traces/http.champsimtrace.gz
Heartbeat CPU 0 instructions: 50000000 cycles: 26927186123 heartbeat IPC: 0.00245924 cumulative IPC: 0.00185686 (Simulation time: 0 hr 51 min 55 sec) 
Heartbeat CPU 0 instructions: 60000000 cycles: 33789964049 heartbeat IPC: 0.00145714 cumulative IPC: 0.00177568 (Simulation time: 1 hr 6 min 2 sec) 
Heartbeat CPU 0 instructions: 70000000 cycles: 40530504835 heartbeat IPC: 0.00148356 cumulative IPC: 0.00172709 (Simulation time: 1 hr 19 min 53 sec) 
Heartbeat CPU 0 instructions: 80000000 cycles: 45732744328 heartbeat IPC: 0.00192225 cumulative IPC: 0.00174929 (Simulation time: 1 hr 29 min 46 sec) 
*** Reached end of trace for Core: 0 Repeating trace: /scratch/user/kevin.weston/dpc3-traces/http.champsimtrace.gz
Heartbeat CPU 0 instructions: 90000000 cycles: 49544063133 heartbeat IPC: 0.00262376 cumulative IPC: 0.00181656 (Simulation time: 1 hr 36 min 8 sec) 
Heartbeat CPU 0 instructions: 100000000 cycles: 55991804717 heartbeat IPC: 0.00155093 cumulative IPC: 0.00178598 (Simulation time: 1 hr 48 min 33 sec) 
Finished CPU 0 instructions: 100000000 cycles: 55991805923 cumulative IPC: 0.00178598 (Simulation time: 1 hr 48 min 33 sec) 

ChampSim completed all CPUs

Region of Interest Statistics

CPU 0 cumulative IPC: 0.00178598 instructions: 100000000 cycles: 55991805923
L1D TOTAL     ACCESS:  599781492  HIT:  174589887  MISS:  425191605
L1D LOAD      ACCESS:  399789854  HIT:  115818239  MISS:  283971615
L1D RFO       ACCESS:  199991638  HIT:   58771648  MISS:  141219990
L1D PREFETCH  ACCESS:          0  HIT:          0  MISS:          0
L1D WRITEBACK ACCESS:          0  HIT:          0  MISS:          0
L1D PREFETCH  REQUESTED:          0  ISSUED:          0  USEFUL:          0  USELESS:          0
L1D AVERAGE MISS LATENCY: 101.473 cycles
L1I TOTAL     ACCESS:   99999974  HIT:   25360119  MISS:   74639855
L1I LOAD      ACCESS:   99999974  HIT:   25360119  MISS:   74639855
L1I RFO       ACCESS:          0  HIT:          0  MISS:          0
L1I PREFETCH  ACCESS:          0  HIT:          0  MISS:          0
L1I WRITEBACK ACCESS:          0  HIT:          0  MISS:          0
L1I PREFETCH  REQUESTED:          0  ISSUED:          0  USEFUL:          0  USELESS:          0
L1I AVERAGE MISS LATENCY: 78.8164 cycles
L2C TOTAL     ACCESS:  652004977  HIT:  363570585  MISS:  288434392
L2C LOAD      ACCESS:  358546471  HIT:  152320941  MISS:  206225530
L2C RFO       ACCESS:  141016149  HIT:   58859649  MISS:   82156500
L2C PREFETCH  ACCESS:          0  HIT:          0  MISS:          0
L2C WRITEBACK ACCESS:  152442357  HIT:  152389995  MISS:      52362
L2C PREFETCH  REQUESTED:          0  ISSUED:          0  USEFUL:          0  USELESS:          0
L2C AVERAGE MISS LATENCY: 132.728 cycles
LLC TOTAL     ACCESS:  391638667  HIT:  247169707  MISS:  144468960
LLC LOAD      ACCESS:  206191609  HIT:  121443287  MISS:   84748322
LLC RFO       ACCESS:   82064013  HIT:   48352712  MISS:   33711301
LLC PREFETCH  ACCESS:          0  HIT:          0  MISS:          0
LLC WRITEBACK ACCESS:  103383045  HIT:   77373708  MISS:   26009337
LLC PREFETCH  REQUESTED:          0  ISSUED:          0  USEFUL:          0  USELESS:          0
LLC AVERAGE MISS LATENCY: 160.567 cycles
Major fault: 0 Minor fault: 546925

DRAM Statistics
 CHANNEL 0
 RQ ROW_BUFFER_HIT:    7619273  ROW_BUFFER_MISS:  110838296
 DBUS_CONGESTED:   25208056
 WQ ROW_BUFFER_HIT:     535773  ROW_BUFFER_MISS:   38568162  FULL:          0

 AVG_CONGESTED_CYCLE: 6

CPU 0 Branch Prediction Accuracy: 0% MPKI: 1000 Average ROB Occupancy at Mispredict: 2.5e-07

Branch types
NOT_BRANCH: 99999964 100%
BRANCH_DIRECT_JUMP: 0 0%
BRANCH_INDIRECT: 0 0%
BRANCH_CONDITIONAL: 0 0%
BRANCH_DIRECT_CALL: 0 0%
BRANCH_INDIRECT_CALL: 0 0%
BRANCH_RETURN: 0 0%
BRANCH_OTHER: 0 0%

