
*** ChampSim Multicore Out-of-Order Simulator ***

Warmup Instructions: 0
Simulation Instructions: 100000000
Number of CPUs: 1
LLC sets: 2048
LLC ways: 16
Off-chip DRAM Size: 4096 MB Channels: 1 Width: 64-bit Data Rate: 3200 MT/s

CPU 0 runs /scratch/user/kevin.weston/dpc3-traces/kafka.champsimtrace.gz
CPU 0 Bimodal branch predictor
Initialized L1I PRRIP

Warmup complete CPU 0 instructions: 2 cycles: 32 (Simulation time: 0 hr 0 min 0 sec) 

Heartbeat CPU 0 instructions: 10000000 cycles: 5498242749 heartbeat IPC: 0.00181876 cumulative IPC: 0.00181876 (Simulation time: 0 hr 11 min 13 sec) 
Heartbeat CPU 0 instructions: 20000000 cycles: 12452666334 heartbeat IPC: 0.00143793 cumulative IPC: 0.00160608 (Simulation time: 0 hr 26 min 13 sec) 
Heartbeat CPU 0 instructions: 30000000 cycles: 19464393402 heartbeat IPC: 0.00142618 cumulative IPC: 0.00154128 (Simulation time: 0 hr 41 min 28 sec) 
Heartbeat CPU 0 instructions: 40000000 cycles: 26200621740 heartbeat IPC: 0.00148451 cumulative IPC: 0.00152668 (Simulation time: 0 hr 55 min 46 sec) 
*** Reached end of trace for Core: 0 Repeating trace: /scratch/user/kevin.weston/dpc3-traces/kafka.champsimtrace.gz
Heartbeat CPU 0 instructions: 50000000 cycles: 32053267556 heartbeat IPC: 0.00170863 cumulative IPC: 0.0015599 (Simulation time: 1 hr 8 min 2 sec) 
Heartbeat CPU 0 instructions: 60000000 cycles: 38572386237 heartbeat IPC: 0.00153395 cumulative IPC: 0.00155552 (Simulation time: 1 hr 21 min 58 sec) 
Heartbeat CPU 0 instructions: 70000000 cycles: 45548795767 heartbeat IPC: 0.0014334 cumulative IPC: 0.00153681 (Simulation time: 1 hr 37 min 6 sec) 
Heartbeat CPU 0 instructions: 80000000 cycles: 52352262102 heartbeat IPC: 0.00146984 cumulative IPC: 0.00152811 (Simulation time: 1 hr 51 min 34 sec) 
Heartbeat CPU 0 instructions: 90000000 cycles: 59151883719 heartbeat IPC: 0.00147067 cumulative IPC: 0.00152151 (Simulation time: 2 hr 5 min 58 sec) 
*** Reached end of trace for Core: 0 Repeating trace: /scratch/user/kevin.weston/dpc3-traces/kafka.champsimtrace.gz
Heartbeat CPU 0 instructions: 100000000 cycles: 64652539633 heartbeat IPC: 0.00181797 cumulative IPC: 0.00154673 (Simulation time: 2 hr 17 min 15 sec) 
Finished CPU 0 instructions: 100000000 cycles: 64652540955 cumulative IPC: 0.00154673 (Simulation time: 2 hr 17 min 15 sec) 

ChampSim completed all CPUs

Region of Interest Statistics

CPU 0 cumulative IPC: 0.00154673 instructions: 100000000 cycles: 64652540955
L1D TOTAL     ACCESS:  599833408  HIT:  146453014  MISS:  453380394
L1D LOAD      ACCESS:  399837326  HIT:   95468654  MISS:  304368672
L1D RFO       ACCESS:  199996082  HIT:   50984360  MISS:  149011722
L1D PREFETCH  ACCESS:          0  HIT:          0  MISS:          0
L1D WRITEBACK ACCESS:          0  HIT:          0  MISS:          0
L1D PREFETCH  REQUESTED:          0  ISSUED:          0  USEFUL:          0  USELESS:          0
L1D AVERAGE MISS LATENCY: 120.828 cycles
L1I TOTAL     ACCESS:   99999976  HIT:   22633643  MISS:   77366333
L1I LOAD      ACCESS:   99999976  HIT:   22633643  MISS:   77366333
L1I RFO       ACCESS:          0  HIT:          0  MISS:          0
L1I PREFETCH  ACCESS:          0  HIT:          0  MISS:          0
L1I WRITEBACK ACCESS:          0  HIT:          0  MISS:          0
L1I PREFETCH  REQUESTED:          0  ISSUED:          0  USEFUL:          0  USELESS:          0
L1I AVERAGE MISS LATENCY: 93.7756 cycles
L2C TOTAL     ACCESS:  695295385  HIT:  341368774  MISS:  353926611
L2C LOAD      ACCESS:  381593509  HIT:  128531267  MISS:  253062242
L2C RFO       ACCESS:  148881177  HIT:   48079520  MISS:  100801657
L2C PREFETCH  ACCESS:          0  HIT:          0  MISS:          0
L2C WRITEBACK ACCESS:  164820699  HIT:  164757987  MISS:      62712
L2C PREFETCH  REQUESTED:          0  ISSUED:          0  USEFUL:          0  USELESS:          0
L2C AVERAGE MISS LATENCY: 140.483 cycles
LLC TOTAL     ACCESS:  480694599  HIT:  326067046  MISS:  154627553
LLC LOAD      ACCESS:  253037109  HIT:  142399327  MISS:  110637782
LLC RFO       ACCESS:  100731409  HIT:   56817914  MISS:   43913495
LLC PREFETCH  ACCESS:          0  HIT:          0  MISS:          0
LLC WRITEBACK ACCESS:  126926081  HIT:  126849805  MISS:      76276
LLC PREFETCH  REQUESTED:          0  ISSUED:          0  USEFUL:          0  USELESS:          0
LLC AVERAGE MISS LATENCY: 200.128 cycles
Major fault: 0 Minor fault: 741998

DRAM Statistics
 CHANNEL 0
 RQ ROW_BUFFER_HIT:    7684441  ROW_BUFFER_MISS:  146859958
 DBUS_CONGESTED:   29721016
 WQ ROW_BUFFER_HIT:    1069421  ROW_BUFFER_MISS:   62092774  FULL:          0

 AVG_CONGESTED_CYCLE: 6

CPU 0 Branch Prediction Accuracy: 0% MPKI: 1000 Average ROB Occupancy at Mispredict: 2.3e-07

Branch types
NOT_BRANCH: 99999966 100%
BRANCH_DIRECT_JUMP: 0 0%
BRANCH_INDIRECT: 0 0%
BRANCH_CONDITIONAL: 0 0%
BRANCH_DIRECT_CALL: 0 0%
BRANCH_INDIRECT_CALL: 0 0%
BRANCH_RETURN: 0 0%
BRANCH_OTHER: 0 0%

