
*** ChampSim Multicore Out-of-Order Simulator ***

Warmup Instructions: 0
Simulation Instructions: 100000000
Number of CPUs: 1
LLC sets: 2048
LLC ways: 16
Off-chip DRAM Size: 4096 MB Channels: 1 Width: 64-bit Data Rate: 3200 MT/s

CPU 0 runs /scratch/user/kevin.weston/dpc3-traces/mediawiki.champsimtrace.gz
CPU 0 Bimodal branch predictor
Initialize SRRIP state

Warmup complete CPU 0 instructions: 2 cycles: 29 (Simulation time: 0 hr 0 min 0 sec) 

Heartbeat CPU 0 instructions: 10000000 cycles: 6014849311 heartbeat IPC: 0.00166255 cumulative IPC: 0.00166255 (Simulation time: 0 hr 12 min 2 sec) 
Heartbeat CPU 0 instructions: 20000000 cycles: 11846604696 heartbeat IPC: 0.00171475 cumulative IPC: 0.00168825 (Simulation time: 0 hr 23 min 42 sec) 
Heartbeat CPU 0 instructions: 30000000 cycles: 17746183209 heartbeat IPC: 0.00169504 cumulative IPC: 0.0016905 (Simulation time: 0 hr 35 min 36 sec) 
Heartbeat CPU 0 instructions: 40000000 cycles: 23258264761 heartbeat IPC: 0.0018142 cumulative IPC: 0.00171982 (Simulation time: 0 hr 46 min 26 sec) 
*** Reached end of trace for Core: 0 Repeating trace: /scratch/user/kevin.weston/dpc3-traces/mediawiki.champsimtrace.gz
Heartbeat CPU 0 instructions: 50000000 cycles: 29268242999 heartbeat IPC: 0.0016639 cumulative IPC: 0.00170834 (Simulation time: 0 hr 58 min 32 sec) 
Heartbeat CPU 0 instructions: 60000000 cycles: 35223520492 heartbeat IPC: 0.00167918 cumulative IPC: 0.00170341 (Simulation time: 1 hr 10 min 30 sec) 
Heartbeat CPU 0 instructions: 70000000 cycles: 40971016149 heartbeat IPC: 0.00173989 cumulative IPC: 0.00170852 (Simulation time: 1 hr 21 min 53 sec) 
Heartbeat CPU 0 instructions: 80000000 cycles: 46865326679 heartbeat IPC: 0.00169655 cumulative IPC: 0.00170702 (Simulation time: 1 hr 33 min 41 sec) 
*** Reached end of trace for Core: 0 Repeating trace: /scratch/user/kevin.weston/dpc3-traces/mediawiki.champsimtrace.gz
Heartbeat CPU 0 instructions: 90000000 cycles: 52479237303 heartbeat IPC: 0.00178129 cumulative IPC: 0.00171496 (Simulation time: 1 hr 44 min 39 sec) 
Heartbeat CPU 0 instructions: 100000000 cycles: 58496921294 heartbeat IPC: 0.00166177 cumulative IPC: 0.00170949 (Simulation time: 1 hr 56 min 43 sec) 
Finished CPU 0 instructions: 100000000 cycles: 58496921544 cumulative IPC: 0.00170949 (Simulation time: 1 hr 56 min 43 sec) 

ChampSim completed all CPUs

Region of Interest Statistics

CPU 0 cumulative IPC: 0.00170949 instructions: 100000000 cycles: 58496921544
L1D TOTAL     ACCESS:  599828920  HIT:  162466802  MISS:  437362118
L1D LOAD      ACCESS:  399830230  HIT:  108059287  MISS:  291770943
L1D RFO       ACCESS:  199998690  HIT:   54407515  MISS:  145591175
L1D PREFETCH  ACCESS:          0  HIT:          0  MISS:          0
L1D WRITEBACK ACCESS:          0  HIT:          0  MISS:          0
L1D PREFETCH  REQUESTED:          0  ISSUED:          0  USEFUL:          0  USELESS:          0
L1D AVERAGE MISS LATENCY: 106.294 cycles
L1I TOTAL     ACCESS:   99999980  HIT:   21744774  MISS:   78255206
L1I LOAD      ACCESS:   99999980  HIT:   21744774  MISS:   78255206
L1I RFO       ACCESS:          0  HIT:          0  MISS:          0
L1I PREFETCH  ACCESS:          0  HIT:          0  MISS:          0
L1I WRITEBACK ACCESS:          0  HIT:          0  MISS:          0
L1I PREFETCH  REQUESTED:          0  ISSUED:          0  USEFUL:          0  USELESS:          0
L1I AVERAGE MISS LATENCY: 80.1054 cycles
L2C TOTAL     ACCESS:  674827080  HIT:  350327145  MISS:  324499935
L2C LOAD      ACCESS:  369887891  HIT:  138001177  MISS:  231886714
L2C RFO       ACCESS:  145346141  HIT:   52831173  MISS:   92514968
L2C PREFETCH  ACCESS:          0  HIT:          0  MISS:          0
L2C WRITEBACK ACCESS:  159593048  HIT:  159494795  MISS:      98253
L2C PREFETCH  REQUESTED:          0  ISSUED:          0  USEFUL:          0  USELESS:          0
L2C AVERAGE MISS LATENCY: 127.484 cycles
LLC TOTAL     ACCESS:  442499043  HIT:  317701075  MISS:  124797968
LLC LOAD      ACCESS:  231860152  HIT:  142878311  MISS:   88981841
LLC RFO       ACCESS:   92466506  HIT:   57048066  MISS:   35418440
LLC PREFETCH  ACCESS:          0  HIT:          0  MISS:          0
LLC WRITEBACK ACCESS:  118172385  HIT:  117774698  MISS:     397687
LLC PREFETCH  REQUESTED:          0  ISSUED:          0  USEFUL:          0  USELESS:          0
LLC AVERAGE MISS LATENCY: 196.028 cycles
Major fault: 0 Minor fault: 516126

DRAM Statistics
 CHANNEL 0
 RQ ROW_BUFFER_HIT:   10120462  ROW_BUFFER_MISS:  114275424
 DBUS_CONGESTED:   28750440
 WQ ROW_BUFFER_HIT:     634320  ROW_BUFFER_MISS:   48562484  FULL:          0

 AVG_CONGESTED_CYCLE: 6

CPU 0 Branch Prediction Accuracy: 0% MPKI: 1000 Average ROB Occupancy at Mispredict: 1.8e-07

Branch types
NOT_BRANCH: 99999970 100%
BRANCH_DIRECT_JUMP: 0 0%
BRANCH_INDIRECT: 0 0%
BRANCH_CONDITIONAL: 0 0%
BRANCH_DIRECT_CALL: 0 0%
BRANCH_INDIRECT_CALL: 0 0%
BRANCH_RETURN: 0 0%
BRANCH_OTHER: 0 0%

