
*** ChampSim Multicore Out-of-Order Simulator ***

Warmup Instructions: 0
Simulation Instructions: 100000000
Number of CPUs: 1
LLC sets: 2048
LLC ways: 16
Off-chip DRAM Size: 4096 MB Channels: 1 Width: 64-bit Data Rate: 3200 MT/s

CPU 0 runs /scratch/user/kevin.weston/dpc3-traces/tomcat.champsimtrace.gz
CPU 0 Bimodal branch predictor
Initialized L1I PRRIP

Warmup complete CPU 0 instructions: 2 cycles: 32 (Simulation time: 0 hr 0 min 0 sec) 

Heartbeat CPU 0 instructions: 10000000 cycles: 6225237450 heartbeat IPC: 0.00160636 cumulative IPC: 0.00160636 (Simulation time: 0 hr 13 min 50 sec) 
Heartbeat CPU 0 instructions: 20000000 cycles: 12617775802 heartbeat IPC: 0.00156432 cumulative IPC: 0.00158507 (Simulation time: 0 hr 28 min 7 sec) 
Heartbeat CPU 0 instructions: 30000000 cycles: 18967792559 heartbeat IPC: 0.0015748 cumulative IPC: 0.00158163 (Simulation time: 0 hr 42 min 3 sec) 
Heartbeat CPU 0 instructions: 40000000 cycles: 25138845051 heartbeat IPC: 0.00162047 cumulative IPC: 0.00159116 (Simulation time: 0 hr 55 min 36 sec) 
*** Reached end of trace for Core: 0 Repeating trace: /scratch/user/kevin.weston/dpc3-traces/tomcat.champsimtrace.gz
Heartbeat CPU 0 instructions: 50000000 cycles: 31441391136 heartbeat IPC: 0.00158666 cumulative IPC: 0.00159026 (Simulation time: 1 hr 9 min 26 sec) 
Heartbeat CPU 0 instructions: 60000000 cycles: 37794937185 heartbeat IPC: 0.00157392 cumulative IPC: 0.00158751 (Simulation time: 1 hr 23 min 29 sec) 
Heartbeat CPU 0 instructions: 70000000 cycles: 44164035337 heartbeat IPC: 0.00157008 cumulative IPC: 0.001585 (Simulation time: 1 hr 37 min 34 sec) 
Heartbeat CPU 0 instructions: 80000000 cycles: 50384027411 heartbeat IPC: 0.00160772 cumulative IPC: 0.0015878 (Simulation time: 1 hr 51 min 18 sec) 
*** Reached end of trace for Core: 0 Repeating trace: /scratch/user/kevin.weston/dpc3-traces/tomcat.champsimtrace.gz
Heartbeat CPU 0 instructions: 90000000 cycles: 56679346946 heartbeat IPC: 0.00158848 cumulative IPC: 0.00158788 (Simulation time: 2 hr 5 min 15 sec) 
Heartbeat CPU 0 instructions: 100000000 cycles: 62944244902 heartbeat IPC: 0.0015962 cumulative IPC: 0.00158871 (Simulation time: 2 hr 19 min 3 sec) 
Finished CPU 0 instructions: 100000000 cycles: 62944245151 cumulative IPC: 0.00158871 (Simulation time: 2 hr 19 min 3 sec) 

ChampSim completed all CPUs

Region of Interest Statistics

CPU 0 cumulative IPC: 0.00158871 instructions: 100000000 cycles: 62944245151
L1D TOTAL     ACCESS:  599717635  HIT:  159087748  MISS:  440629887
L1D LOAD      ACCESS:  399724655  HIT:  105855064  MISS:  293869591
L1D RFO       ACCESS:  199992980  HIT:   53232684  MISS:  146760296
L1D PREFETCH  ACCESS:          0  HIT:          0  MISS:          0
L1D WRITEBACK ACCESS:          0  HIT:          0  MISS:          0
L1D PREFETCH  REQUESTED:          0  ISSUED:          0  USEFUL:          0  USELESS:          0
L1D AVERAGE MISS LATENCY: 120.997 cycles
L1I TOTAL     ACCESS:   99999976  HIT:   23685885  MISS:   76314091
L1I LOAD      ACCESS:   99999976  HIT:   23685885  MISS:   76314091
L1I RFO       ACCESS:          0  HIT:          0  MISS:          0
L1I PREFETCH  ACCESS:          0  HIT:          0  MISS:          0
L1I WRITEBACK ACCESS:          0  HIT:          0  MISS:          0
L1I PREFETCH  REQUESTED:          0  ISSUED:          0  USEFUL:          0  USELESS:          0
L1I AVERAGE MISS LATENCY: 94.3074 cycles
L2C TOTAL     ACCESS:  676061430  HIT:  320823915  MISS:  355237515
L2C LOAD      ACCESS:  370073326  HIT:  116678360  MISS:  253394966
L2C RFO       ACCESS:  146629111  HIT:   44884377  MISS:  101744734
L2C PREFETCH  ACCESS:          0  HIT:          0  MISS:          0
L2C WRITEBACK ACCESS:  159358993  HIT:  159261178  MISS:      97815
L2C PREFETCH  REQUESTED:          0  ISSUED:          0  USEFUL:          0  USELESS:          0
L2C AVERAGE MISS LATENCY: 136.953 cycles
LLC TOTAL     ACCESS:  480951523  HIT:  330626865  MISS:  150324658
LLC LOAD      ACCESS:  253369395  HIT:  145956129  MISS:  107413266
LLC RFO       ACCESS:  101696561  HIT:   58842413  MISS:   42854148
LLC PREFETCH  ACCESS:          0  HIT:          0  MISS:          0
LLC WRITEBACK ACCESS:  125885567  HIT:  125828323  MISS:      57244
LLC PREFETCH  REQUESTED:          0  ISSUED:          0  USEFUL:          0  USELESS:          0
LLC AVERAGE MISS LATENCY: 200.324 cycles
Major fault: 0 Minor fault: 436369

DRAM Statistics
 CHANNEL 0
 RQ ROW_BUFFER_HIT:    9957750  ROW_BUFFER_MISS:  140301020
 DBUS_CONGESTED:   30882208
 WQ ROW_BUFFER_HIT:     890402  ROW_BUFFER_MISS:   62754714  FULL:          0

 AVG_CONGESTED_CYCLE: 6

CPU 0 Branch Prediction Accuracy: 0% MPKI: 1000 Average ROB Occupancy at Mispredict: 2.3e-07

Branch types
NOT_BRANCH: 99999966 100%
BRANCH_DIRECT_JUMP: 0 0%
BRANCH_INDIRECT: 0 0%
BRANCH_CONDITIONAL: 0 0%
BRANCH_DIRECT_CALL: 0 0%
BRANCH_INDIRECT_CALL: 0 0%
BRANCH_RETURN: 0 0%
BRANCH_OTHER: 0 0%

