
*** ChampSim Multicore Out-of-Order Simulator ***

Warmup Instructions: 0
Simulation Instructions: 100000000
Number of CPUs: 1
LLC sets: 2048
LLC ways: 16
Off-chip DRAM Size: 4096 MB Channels: 1 Width: 64-bit Data Rate: 3200 MT/s

CPU 0 runs /scratch/user/kevin.weston/dpc3-traces/verilator.champsimtrace.gz
CPU 0 Bimodal branch predictor
Initialize DRRIP state
Assign rand_sets[0]: 454  LLC: 2048
rand_sets[0]: 454
Assign rand_sets[1]: 1662  LLC: 2048
rand_sets[1]: 1662
Assign rand_sets[2]: 1921  LLC: 2048
rand_sets[2]: 1921
Assign rand_sets[3]: 1131  LLC: 2048
rand_sets[3]: 1131
Assign rand_sets[4]: 331  LLC: 2048
rand_sets[4]: 331
Assign rand_sets[5]: 1531  LLC: 2048
rand_sets[5]: 1531
Assign rand_sets[6]: 482  LLC: 2048
rand_sets[6]: 482
Assign rand_sets[7]: 1275  LLC: 2048
rand_sets[7]: 1275
Assign rand_sets[8]: 1876  LLC: 2048
rand_sets[8]: 1876
Assign rand_sets[9]: 2038  LLC: 2048
rand_sets[9]: 2038
Assign rand_sets[10]: 701  LLC: 2048
rand_sets[10]: 701
Assign rand_sets[11]: 479  LLC: 2048
rand_sets[11]: 479
Assign rand_sets[12]: 892  LLC: 2048
rand_sets[12]: 892
Assign rand_sets[13]: 1820  LLC: 2048
rand_sets[13]: 1820
Assign rand_sets[14]: 1505  LLC: 2048
rand_sets[14]: 1505
Assign rand_sets[15]: 1159  LLC: 2048
rand_sets[15]: 1159
Assign rand_sets[16]: 513  LLC: 2048
rand_sets[16]: 513
Assign rand_sets[17]: 703  LLC: 2048
rand_sets[17]: 703
Assign rand_sets[18]: 561  LLC: 2048
rand_sets[18]: 561
Assign rand_sets[19]: 990  LLC: 2048
rand_sets[19]: 990
Assign rand_sets[20]: 342  LLC: 2048
rand_sets[20]: 342
Assign rand_sets[21]: 882  LLC: 2048
rand_sets[21]: 882
Assign rand_sets[22]: 15  LLC: 2048
rand_sets[22]: 15
Assign rand_sets[23]: 71  LLC: 2048
rand_sets[23]: 71
Assign rand_sets[24]: 1127  LLC: 2048
rand_sets[24]: 1127
Assign rand_sets[25]: 1382  LLC: 2048
rand_sets[25]: 1382
Assign rand_sets[26]: 647  LLC: 2048
rand_sets[26]: 647
Assign rand_sets[27]: 857  LLC: 2048
rand_sets[27]: 857
Assign rand_sets[28]: 1450  LLC: 2048
rand_sets[28]: 1450
Assign rand_sets[29]: 1160  LLC: 2048
rand_sets[29]: 1160
Assign rand_sets[30]: 1852  LLC: 2048
rand_sets[30]: 1852
Assign rand_sets[31]: 1881  LLC: 2048
rand_sets[31]: 1881
Assign rand_sets[32]: 1770  LLC: 2048
rand_sets[32]: 1770
Assign rand_sets[33]: 1622  LLC: 2048
rand_sets[33]: 1622
Assign rand_sets[34]: 275  LLC: 2048
rand_sets[34]: 275
Assign rand_sets[35]: 635  LLC: 2048
rand_sets[35]: 635
Assign rand_sets[36]: 466  LLC: 2048
rand_sets[36]: 466
Assign rand_sets[37]: 1413  LLC: 2048
rand_sets[37]: 1413
Assign rand_sets[38]: 417  LLC: 2048
rand_sets[38]: 417
Assign rand_sets[39]: 472  LLC: 2048
rand_sets[39]: 472
Assign rand_sets[40]: 1340  LLC: 2048
rand_sets[40]: 1340
Assign rand_sets[41]: 852  LLC: 2048
rand_sets[41]: 852
Assign rand_sets[42]: 1365  LLC: 2048
rand_sets[42]: 1365
Assign rand_sets[43]: 47  LLC: 2048
rand_sets[43]: 47
Assign rand_sets[44]: 823  LLC: 2048
rand_sets[44]: 823
Assign rand_sets[45]: 686  LLC: 2048
rand_sets[45]: 686
Assign rand_sets[46]: 1637  LLC: 2048
rand_sets[46]: 1637
Assign rand_sets[47]: 1115  LLC: 2048
rand_sets[47]: 1115
Assign rand_sets[48]: 986  LLC: 2048
rand_sets[48]: 986
Assign rand_sets[49]: 258  LLC: 2048
rand_sets[49]: 258
Assign rand_sets[50]: 633  LLC: 2048
rand_sets[50]: 633
Assign rand_sets[51]: 920  LLC: 2048
rand_sets[51]: 920
Assign rand_sets[52]: 204  LLC: 2048
rand_sets[52]: 204
Assign rand_sets[53]: 227  LLC: 2048
rand_sets[53]: 227
Assign rand_sets[54]: 1818  LLC: 2048
rand_sets[54]: 1818
Assign rand_sets[55]: 886  LLC: 2048
rand_sets[55]: 886
Assign rand_sets[56]: 1422  LLC: 2048
rand_sets[56]: 1422
Assign rand_sets[57]: 607  LLC: 2048
rand_sets[57]: 607
Assign rand_sets[58]: 217  LLC: 2048
rand_sets[58]: 217
Assign rand_sets[59]: 1945  LLC: 2048
rand_sets[59]: 1945
Assign rand_sets[60]: 143  LLC: 2048
rand_sets[60]: 143
Assign rand_sets[61]: 1311  LLC: 2048
rand_sets[61]: 1311
Assign rand_sets[62]: 319  LLC: 2048
rand_sets[62]: 319
Assign rand_sets[63]: 1846  LLC: 2048
rand_sets[63]: 1846

Warmup complete CPU 0 instructions: 1 cycles: 28 (Simulation time: 0 hr 0 min 0 sec) 

Heartbeat CPU 0 instructions: 10000000 cycles: 8873604519 heartbeat IPC: 0.00112694 cumulative IPC: 0.00112694 (Simulation time: 0 hr 20 min 25 sec) 
Heartbeat CPU 0 instructions: 20000000 cycles: 17755333219 heartbeat IPC: 0.00112591 cumulative IPC: 0.00112642 (Simulation time: 0 hr 40 min 52 sec) 
Heartbeat CPU 0 instructions: 30000000 cycles: 26640899122 heartbeat IPC: 0.00112542 cumulative IPC: 0.00112609 (Simulation time: 1 hr 1 min 19 sec) 
*** Reached end of trace for Core: 0 Repeating trace: /scratch/user/kevin.weston/dpc3-traces/verilator.champsimtrace.gz
Heartbeat CPU 0 instructions: 40000000 cycles: 35520488612 heartbeat IPC: 0.00112618 cumulative IPC: 0.00112611 (Simulation time: 1 hr 21 min 43 sec) 
Heartbeat CPU 0 instructions: 50000000 cycles: 44397921104 heartbeat IPC: 0.00112645 cumulative IPC: 0.00112618 (Simulation time: 1 hr 41 min 54 sec) 
Heartbeat CPU 0 instructions: 60000000 cycles: 53281574482 heartbeat IPC: 0.00112566 cumulative IPC: 0.00112609 (Simulation time: 2 hr 1 min 37 sec) 
Heartbeat CPU 0 instructions: 70000000 cycles: 62167474195 heartbeat IPC: 0.00112538 cumulative IPC: 0.00112599 (Simulation time: 2 hr 21 min 14 sec) 
*** Reached end of trace for Core: 0 Repeating trace: /scratch/user/kevin.weston/dpc3-traces/verilator.champsimtrace.gz
Heartbeat CPU 0 instructions: 80000000 cycles: 71045990770 heartbeat IPC: 0.00112631 cumulative IPC: 0.00112603 (Simulation time: 2 hr 40 min 46 sec) 
Heartbeat CPU 0 instructions: 90000000 cycles: 79924321053 heartbeat IPC: 0.00112634 cumulative IPC: 0.00112607 (Simulation time: 3 hr 0 min 18 sec) 
Heartbeat CPU 0 instructions: 100000000 cycles: 88808957608 heartbeat IPC: 0.00112554 cumulative IPC: 0.00112601 (Simulation time: 3 hr 19 min 49 sec) 
Finished CPU 0 instructions: 100000000 cycles: 88808958201 cumulative IPC: 0.00112601 (Simulation time: 3 hr 19 min 49 sec) 

ChampSim completed all CPUs

Region of Interest Statistics

CPU 0 cumulative IPC: 0.00112601 instructions: 100000000 cycles: 88808958201
L1D TOTAL     ACCESS:  599833111  HIT:   62917506  MISS:  536915605
L1D LOAD      ACCESS:  399847695  HIT:   39336286  MISS:  360511409
L1D RFO       ACCESS:  199985416  HIT:   23581220  MISS:  176404196
L1D PREFETCH  ACCESS:          0  HIT:          0  MISS:          0
L1D WRITEBACK ACCESS:          0  HIT:          0  MISS:          0
L1D PREFETCH  REQUESTED:          0  ISSUED:          0  USEFUL:          0  USELESS:          0
L1D AVERAGE MISS LATENCY: 169.205 cycles
L1I TOTAL     ACCESS:   99999980  HIT:    8463409  MISS:   91536571
L1I LOAD      ACCESS:   99999980  HIT:    8463409  MISS:   91536571
L1I RFO       ACCESS:          0  HIT:          0  MISS:          0
L1I PREFETCH  ACCESS:          0  HIT:          0  MISS:          0
L1I WRITEBACK ACCESS:          0  HIT:          0  MISS:          0
L1I PREFETCH  REQUESTED:          0  ISSUED:          0  USEFUL:          0  USELESS:          0
L1I AVERAGE MISS LATENCY: 141.951 cycles
L2C TOTAL     ACCESS:  818153155  HIT:  352781900  MISS:  465371255
L2C LOAD      ACCESS:  451866169  HIT:  118446413  MISS:  333419756
L2C RFO       ACCESS:  176150909  HIT:   44247102  MISS:  131903807
L2C PREFETCH  ACCESS:          0  HIT:          0  MISS:          0
L2C WRITEBACK ACCESS:  190136077  HIT:  190088385  MISS:      47692
L2C PREFETCH  REQUESTED:          0  ISSUED:          0  USEFUL:          0  USELESS:          0
L2C AVERAGE MISS LATENCY: 192.143 cycles
LLC TOTAL     ACCESS:  623168593  HIT:  231579088  MISS:  391589505
LLC LOAD      ACCESS:  333396214  HIT:  107675397  MISS:  225720817
LLC RFO       ACCESS:  131846778  HIT:   43846995  MISS:   87999783
LLC PREFETCH  ACCESS:          0  HIT:          0  MISS:          0
LLC WRITEBACK ACCESS:  157925601  HIT:   80056696  MISS:   77868905
LLC PREFETCH  REQUESTED:          0  ISSUED:          0  USEFUL:          0  USELESS:          0
LLC AVERAGE MISS LATENCY: 167.476 cycles
Major fault: 0 Minor fault: 717248

DRAM Statistics
 CHANNEL 0
 RQ ROW_BUFFER_HIT:   25747575  ROW_BUFFER_MISS:  287969609
 DBUS_CONGESTED:   78224943
 WQ ROW_BUFFER_HIT:    1111378  ROW_BUFFER_MISS:   97582519  FULL:          0

 AVG_CONGESTED_CYCLE: 5

CPU 0 Branch Prediction Accuracy: 0% MPKI: 1000 Average ROB Occupancy at Mispredict: 2e-07

Branch types
NOT_BRANCH: 99999969 100%
BRANCH_DIRECT_JUMP: 0 0%
BRANCH_INDIRECT: 0 0%
BRANCH_CONDITIONAL: 0 0%
BRANCH_DIRECT_CALL: 0 0%
BRANCH_INDIRECT_CALL: 0 0%
BRANCH_RETURN: 0 0%
BRANCH_OTHER: 0 0%

