
*** ChampSim Multicore Out-of-Order Simulator ***

Warmup Instructions: 0
Simulation Instructions: 100000000
Number of CPUs: 1
LLC sets: 2048
LLC ways: 16
Off-chip DRAM Size: 4096 MB Channels: 1 Width: 64-bit Data Rate: 3200 MT/s

CPU 0 runs /scratch/user/kevin.weston/dpc3-traces/verilator.champsimtrace.gz
CPU 0 Bimodal branch predictor
Initialize RRPV
Initialize PRRIP state

Warmup complete CPU 0 instructions: 1 cycles: 28 (Simulation time: 0 hr 0 min 0 sec) 

Heartbeat CPU 0 instructions: 10000000 cycles: 8802047433 heartbeat IPC: 0.0011361 cumulative IPC: 0.0011361 (Simulation time: 0 hr 20 min 14 sec) 
Heartbeat CPU 0 instructions: 20000000 cycles: 17611688721 heartbeat IPC: 0.00113512 cumulative IPC: 0.00113561 (Simulation time: 0 hr 40 min 16 sec) 
Heartbeat CPU 0 instructions: 30000000 cycles: 26424968942 heartbeat IPC: 0.00113465 cumulative IPC: 0.00113529 (Simulation time: 1 hr 0 min 23 sec) 
*** Reached end of trace for Core: 0 Repeating trace: /scratch/user/kevin.weston/dpc3-traces/verilator.champsimtrace.gz
Heartbeat CPU 0 instructions: 40000000 cycles: 35232105960 heartbeat IPC: 0.00113544 cumulative IPC: 0.00113533 (Simulation time: 1 hr 20 min 31 sec) 
Heartbeat CPU 0 instructions: 50000000 cycles: 44037189938 heartbeat IPC: 0.00113571 cumulative IPC: 0.0011354 (Simulation time: 1 hr 40 min 36 sec) 
Heartbeat CPU 0 instructions: 60000000 cycles: 52849057773 heartbeat IPC: 0.00113483 cumulative IPC: 0.00113531 (Simulation time: 2 hr 0 min 33 sec) 
Heartbeat CPU 0 instructions: 70000000 cycles: 61662550865 heartbeat IPC: 0.00113462 cumulative IPC: 0.00113521 (Simulation time: 2 hr 20 min 21 sec) 
*** Reached end of trace for Core: 0 Repeating trace: /scratch/user/kevin.weston/dpc3-traces/verilator.champsimtrace.gz
Heartbeat CPU 0 instructions: 80000000 cycles: 70468791913 heartbeat IPC: 0.00113556 cumulative IPC: 0.00113525 (Simulation time: 2 hr 40 min 4 sec) 
Heartbeat CPU 0 instructions: 90000000 cycles: 79274770326 heartbeat IPC: 0.00113559 cumulative IPC: 0.00113529 (Simulation time: 2 hr 59 min 59 sec) 
Heartbeat CPU 0 instructions: 100000000 cycles: 88087149799 heartbeat IPC: 0.00113477 cumulative IPC: 0.00113524 (Simulation time: 3 hr 19 min 47 sec) 
Finished CPU 0 instructions: 100000000 cycles: 88087150392 cumulative IPC: 0.00113524 (Simulation time: 3 hr 19 min 47 sec) 

ChampSim completed all CPUs

Region of Interest Statistics

CPU 0 cumulative IPC: 0.00113524 instructions: 100000000 cycles: 88087150392
L1D TOTAL     ACCESS:  599835046  HIT:   62923757  MISS:  536911289
L1D LOAD      ACCESS:  399849484  HIT:   39340089  MISS:  360509395
L1D RFO       ACCESS:  199985562  HIT:   23583668  MISS:  176401894
L1D PREFETCH  ACCESS:          0  HIT:          0  MISS:          0
L1D WRITEBACK ACCESS:          0  HIT:          0  MISS:          0
L1D PREFETCH  REQUESTED:          0  ISSUED:          0  USEFUL:          0  USELESS:          0
L1D AVERAGE MISS LATENCY: 166.697 cycles
L1I TOTAL     ACCESS:   99999980  HIT:    8463409  MISS:   91536571
L1I LOAD      ACCESS:   99999980  HIT:    8463409  MISS:   91536571
L1I RFO       ACCESS:          0  HIT:          0  MISS:          0
L1I PREFETCH  ACCESS:          0  HIT:          0  MISS:          0
L1I WRITEBACK ACCESS:          0  HIT:          0  MISS:          0
L1I PREFETCH  REQUESTED:          0  ISSUED:          0  USEFUL:          0  USELESS:          0
L1I AVERAGE MISS LATENCY: 140.322 cycles
L2C TOTAL     ACCESS:  818150635  HIT:  352340282  MISS:  465810353
L2C LOAD      ACCESS:  451865706  HIT:  118146937  MISS:  333718769
L2C RFO       ACCESS:  176148678  HIT:   44113669  MISS:  132035009
L2C PREFETCH  ACCESS:          0  HIT:          0  MISS:          0
L2C WRITEBACK ACCESS:  190136251  HIT:  190079676  MISS:      56575
L2C PREFETCH  REQUESTED:          0  ISSUED:          0  USEFUL:          0  USELESS:          0
L2C AVERAGE MISS LATENCY: 188.799 cycles
LLC TOTAL     ACCESS:  623927393  HIT:  253050693  MISS:  370876700
LLC LOAD      ACCESS:  333694218  HIT:  113207256  MISS:  220486962
LLC RFO       ACCESS:  131985496  HIT:   45284756  MISS:   86700740
LLC PREFETCH  ACCESS:          0  HIT:          0  MISS:          0
LLC WRITEBACK ACCESS:  158247679  HIT:   94558681  MISS:   63688998
LLC PREFETCH  REQUESTED:          0  ISSUED:          0  USEFUL:          0  USELESS:          0
LLC AVERAGE MISS LATENCY: 172.869 cycles
Major fault: 0 Minor fault: 717248
==============================
Perceptron RRIP Stats:
   Num Updates:          623916152
   Num Primary Trains:   75147196
   Num Secondary Trains: 75232782
==============================
primary_perceptron #0: 0 -4 -2 0 4 -4 4 2 0 -2 -2 0 0 0 0 -10 
secondary_perceptron #0: -2 -4 -2 0 6 -2 2 -2 -2 2 -2 0 0 0 2 -2 0 -2 4 2 -14 


DRAM Statistics
 CHANNEL 0
 RQ ROW_BUFFER_HIT:   25128630  ROW_BUFFER_MISS:  282053515
 DBUS_CONGESTED:   77385276
 WQ ROW_BUFFER_HIT:    1149732  ROW_BUFFER_MISS:   99475233  FULL:          0

 AVG_CONGESTED_CYCLE: 5

CPU 0 Branch Prediction Accuracy: 0% MPKI: 1000 Average ROB Occupancy at Mispredict: 2e-07

Branch types
NOT_BRANCH: 99999969 100%
BRANCH_DIRECT_JUMP: 0 0%
BRANCH_INDIRECT: 0 0%
BRANCH_CONDITIONAL: 0 0%
BRANCH_DIRECT_CALL: 0 0%
BRANCH_INDIRECT_CALL: 0 0%
BRANCH_RETURN: 0 0%
BRANCH_OTHER: 0 0%

