
*** ChampSim Multicore Out-of-Order Simulator ***

Warmup Instructions: 0
Simulation Instructions: 100000000
Number of CPUs: 1
LLC sets: 2048
LLC ways: 16
Off-chip DRAM Size: 4096 MB Channels: 1 Width: 64-bit Data Rate: 3200 MT/s

CPU 0 runs /scratch/user/kevin.weston/dpc3-traces/verilator.champsimtrace.gz
CPU 0 Bimodal branch predictor
Initialize RRPV
Initialize PRRIP state

Warmup complete CPU 0 instructions: 1 cycles: 28 (Simulation time: 0 hr 0 min 0 sec) 

Heartbeat CPU 0 instructions: 10000000 cycles: 8832446566 heartbeat IPC: 0.00113219 cumulative IPC: 0.00113219 (Simulation time: 0 hr 20 min 36 sec) 
Heartbeat CPU 0 instructions: 20000000 cycles: 17671976908 heartbeat IPC: 0.00113128 cumulative IPC: 0.00113174 (Simulation time: 0 hr 40 min 56 sec) 
Heartbeat CPU 0 instructions: 30000000 cycles: 26515644424 heartbeat IPC: 0.00113075 cumulative IPC: 0.00113141 (Simulation time: 1 hr 1 min 17 sec) 
*** Reached end of trace for Core: 0 Repeating trace: /scratch/user/kevin.weston/dpc3-traces/verilator.champsimtrace.gz
Heartbeat CPU 0 instructions: 40000000 cycles: 35352570954 heartbeat IPC: 0.00113162 cumulative IPC: 0.00113146 (Simulation time: 1 hr 21 min 35 sec) 
Heartbeat CPU 0 instructions: 50000000 cycles: 44188402800 heartbeat IPC: 0.00113176 cumulative IPC: 0.00113152 (Simulation time: 1 hr 41 min 49 sec) 
Heartbeat CPU 0 instructions: 60000000 cycles: 53030681044 heartbeat IPC: 0.00113093 cumulative IPC: 0.00113142 (Simulation time: 2 hr 2 min 5 sec) 
Heartbeat CPU 0 instructions: 70000000 cycles: 61874707748 heartbeat IPC: 0.00113071 cumulative IPC: 0.00113132 (Simulation time: 2 hr 22 min 15 sec) 
*** Reached end of trace for Core: 0 Repeating trace: /scratch/user/kevin.weston/dpc3-traces/verilator.champsimtrace.gz
Heartbeat CPU 0 instructions: 80000000 cycles: 70711233365 heartbeat IPC: 0.00113167 cumulative IPC: 0.00113136 (Simulation time: 2 hr 42 min 21 sec) 
Heartbeat CPU 0 instructions: 90000000 cycles: 79547633935 heartbeat IPC: 0.00113168 cumulative IPC: 0.0011314 (Simulation time: 3 hr 2 min 26 sec) 
Heartbeat CPU 0 instructions: 100000000 cycles: 88390213965 heartbeat IPC: 0.00113089 cumulative IPC: 0.00113135 (Simulation time: 3 hr 22 min 35 sec) 
Finished CPU 0 instructions: 100000000 cycles: 88390214558 cumulative IPC: 0.00113135 (Simulation time: 3 hr 22 min 35 sec) 

ChampSim completed all CPUs

Region of Interest Statistics

CPU 0 cumulative IPC: 0.00113135 instructions: 100000000 cycles: 88390214558
L1D TOTAL     ACCESS:  599834209  HIT:   62923895  MISS:  536910314
L1D LOAD      ACCESS:  399848751  HIT:   39340504  MISS:  360508247
L1D RFO       ACCESS:  199985458  HIT:   23583391  MISS:  176402067
L1D PREFETCH  ACCESS:          0  HIT:          0  MISS:          0
L1D WRITEBACK ACCESS:          0  HIT:          0  MISS:          0
L1D PREFETCH  REQUESTED:          0  ISSUED:          0  USEFUL:          0  USELESS:          0
L1D AVERAGE MISS LATENCY: 167.958 cycles
L1I TOTAL     ACCESS:   99999980  HIT:    8463409  MISS:   91536571
L1I LOAD      ACCESS:   99999980  HIT:    8463409  MISS:   91536571
L1I RFO       ACCESS:          0  HIT:          0  MISS:          0
L1I PREFETCH  ACCESS:          0  HIT:          0  MISS:          0
L1I WRITEBACK ACCESS:          0  HIT:          0  MISS:          0
L1I PREFETCH  REQUESTED:          0  ISSUED:          0  USEFUL:          0  USELESS:          0
L1I AVERAGE MISS LATENCY: 141.505 cycles
L2C TOTAL     ACCESS:  818148736  HIT:  352338706  MISS:  465810030
L2C LOAD      ACCESS:  451863739  HIT:  118145189  MISS:  333718550
L2C RFO       ACCESS:  176148984  HIT:   44114057  MISS:  132034927
L2C PREFETCH  ACCESS:          0  HIT:          0  MISS:          0
L2C WRITEBACK ACCESS:  190136013  HIT:  190079460  MISS:      56553
L2C PREFETCH  REQUESTED:          0  ISSUED:          0  USEFUL:          0  USELESS:          0
L2C AVERAGE MISS LATENCY: 190.467 cycles
LLC TOTAL     ACCESS:  623926748  HIT:  248275246  MISS:  375651502
LLC LOAD      ACCESS:  333693690  HIT:  111268061  MISS:  222425629
LLC RFO       ACCESS:  131985339  HIT:   44401065  MISS:   87584274
LLC PREFETCH  ACCESS:          0  HIT:          0  MISS:          0
LLC WRITEBACK ACCESS:  158247719  HIT:   92606120  MISS:   65641599
LLC PREFETCH  REQUESTED:          0  ISSUED:          0  USEFUL:          0  USELESS:          0
LLC AVERAGE MISS LATENCY: 172.706 cycles
Major fault: 0 Minor fault: 717248
==============================
Perceptron RRIP Stats:
   Num Updates:          623915507
   Num Primary Trains:   68911070
   Num Secondary Trains: 68864937
==============================
primary_perceptron #0: -4 0 -4 -2 2 0 6 0 -4 0 -2 0 0 0 0 -10 
secondary_perceptron #0: -5 -3 -1 -1 5 1 9 -1 -1 1 -3 -1 1 3 -1 -1 -1 -1 1 -1 -9 


DRAM Statistics
 CHANNEL 0
 RQ ROW_BUFFER_HIT:   24978900  ROW_BUFFER_MISS:  285017753
 DBUS_CONGESTED:   78280936
 WQ ROW_BUFFER_HIT:    1240239  ROW_BUFFER_MISS:  101054786  FULL:          0

 AVG_CONGESTED_CYCLE: 5

CPU 0 Branch Prediction Accuracy: 0% MPKI: 1000 Average ROB Occupancy at Mispredict: 2e-07

Branch types
NOT_BRANCH: 99999969 100%
BRANCH_DIRECT_JUMP: 0 0%
BRANCH_INDIRECT: 0 0%
BRANCH_CONDITIONAL: 0 0%
BRANCH_DIRECT_CALL: 0 0%
BRANCH_INDIRECT_CALL: 0 0%
BRANCH_RETURN: 0 0%
BRANCH_OTHER: 0 0%

