
*** ChampSim Multicore Out-of-Order Simulator ***

Warmup Instructions: 0
Simulation Instructions: 100000000
Number of CPUs: 1
LLC sets: 2048
LLC ways: 16
Off-chip DRAM Size: 4096 MB Channels: 1 Width: 64-bit Data Rate: 3200 MT/s

CPU 0 runs /scratch/user/kevin.weston/dpc3-traces/wordpress.champsimtrace.gz
CPU 0 Bimodal branch predictor
Initialized L1I PRRIP

Warmup complete CPU 0 instructions: 2 cycles: 29 (Simulation time: 0 hr 0 min 0 sec) 

Heartbeat CPU 0 instructions: 10000000 cycles: 6480912335 heartbeat IPC: 0.00154299 cumulative IPC: 0.00154299 (Simulation time: 0 hr 14 min 8 sec) 
Heartbeat CPU 0 instructions: 20000000 cycles: 13031554855 heartbeat IPC: 0.00152657 cumulative IPC: 0.00153474 (Simulation time: 0 hr 28 min 41 sec) 
Heartbeat CPU 0 instructions: 30000000 cycles: 19610077729 heartbeat IPC: 0.0015201 cumulative IPC: 0.00152983 (Simulation time: 0 hr 43 min 22 sec) 
Heartbeat CPU 0 instructions: 40000000 cycles: 26138971971 heartbeat IPC: 0.00153165 cumulative IPC: 0.00153028 (Simulation time: 0 hr 57 min 54 sec) 
*** Reached end of trace for Core: 0 Repeating trace: /scratch/user/kevin.weston/dpc3-traces/wordpress.champsimtrace.gz
Heartbeat CPU 0 instructions: 50000000 cycles: 32654863075 heartbeat IPC: 0.00153471 cumulative IPC: 0.00153117 (Simulation time: 1 hr 12 min 21 sec) 
Heartbeat CPU 0 instructions: 60000000 cycles: 39181223604 heartbeat IPC: 0.00153225 cumulative IPC: 0.00153135 (Simulation time: 1 hr 26 min 52 sec) 
Heartbeat CPU 0 instructions: 70000000 cycles: 45785072998 heartbeat IPC: 0.00151427 cumulative IPC: 0.00152888 (Simulation time: 1 hr 41 min 36 sec) 
Heartbeat CPU 0 instructions: 80000000 cycles: 52285977947 heartbeat IPC: 0.00153825 cumulative IPC: 0.00153005 (Simulation time: 1 hr 55 min 58 sec) 
*** Reached end of trace for Core: 0 Repeating trace: /scratch/user/kevin.weston/dpc3-traces/wordpress.champsimtrace.gz
Heartbeat CPU 0 instructions: 90000000 cycles: 58834113989 heartbeat IPC: 0.00152715 cumulative IPC: 0.00152972 (Simulation time: 2 hr 10 min 32 sec) 
Heartbeat CPU 0 instructions: 100000000 cycles: 65340484206 heartbeat IPC: 0.00153696 cumulative IPC: 0.00153044 (Simulation time: 2 hr 24 min 56 sec) 
Finished CPU 0 instructions: 100000000 cycles: 65340485850 cumulative IPC: 0.00153044 (Simulation time: 2 hr 24 min 56 sec) 

ChampSim completed all CPUs

Region of Interest Statistics

CPU 0 cumulative IPC: 0.00153044 instructions: 100000000 cycles: 65340485850
L1D TOTAL     ACCESS:  599779462  HIT:  138860288  MISS:  460919174
L1D LOAD      ACCESS:  399780148  HIT:   92354658  MISS:  307425490
L1D RFO       ACCESS:  199999314  HIT:   46505630  MISS:  153493684
L1D PREFETCH  ACCESS:          0  HIT:          0  MISS:          0
L1D WRITEBACK ACCESS:          0  HIT:          0  MISS:          0
L1D PREFETCH  REQUESTED:          0  ISSUED:          0  USEFUL:          0  USELESS:          0
L1D AVERAGE MISS LATENCY: 119.407 cycles
L1I TOTAL     ACCESS:   99999980  HIT:   21226124  MISS:   78773856
L1I LOAD      ACCESS:   99999980  HIT:   21226124  MISS:   78773856
L1I RFO       ACCESS:          0  HIT:          0  MISS:          0
L1I PREFETCH  ACCESS:          0  HIT:          0  MISS:          0
L1I WRITEBACK ACCESS:          0  HIT:          0  MISS:          0
L1I PREFETCH  REQUESTED:          0  ISSUED:          0  USEFUL:          0  USELESS:          0
L1I AVERAGE MISS LATENCY: 93.1837 cycles
L2C TOTAL     ACCESS:  705323216  HIT:  325690813  MISS:  379632403
L2C LOAD      ACCESS:  386112512  HIT:  115329092  MISS:  270783420
L2C RFO       ACCESS:  153379839  HIT:   44681438  MISS:  108698401
L2C PREFETCH  ACCESS:          0  HIT:          0  MISS:          0
L2C WRITEBACK ACCESS:  165830865  HIT:  165680283  MISS:     150582
L2C PREFETCH  REQUESTED:          0  ISSUED:          0  USEFUL:          0  USELESS:          0
L2C AVERAGE MISS LATENCY: 131.282 cycles
LLC TOTAL     ACCESS:  513871007  HIT:  360978338  MISS:  152892669
LLC LOAD      ACCESS:  270763219  HIT:  161475768  MISS:  109287451
LLC RFO       ACCESS:  108653650  HIT:   65089354  MISS:   43564296
LLC PREFETCH  ACCESS:          0  HIT:          0  MISS:          0
LLC WRITEBACK ACCESS:  134454138  HIT:  134413216  MISS:      40922
LLC PREFETCH  REQUESTED:          0  ISSUED:          0  USEFUL:          0  USELESS:          0
LLC AVERAGE MISS LATENCY: 196.752 cycles
Major fault: 0 Minor fault: 430913

DRAM Statistics
 CHANNEL 0
 RQ ROW_BUFFER_HIT:   11723843  ROW_BUFFER_MISS:  141118682
 DBUS_CONGESTED:   36028999
 WQ ROW_BUFFER_HIT:     920594  ROW_BUFFER_MISS:   66673301  FULL:          0

 AVG_CONGESTED_CYCLE: 6

CPU 0 Branch Prediction Accuracy: 0% MPKI: 1000 Average ROB Occupancy at Mispredict: 1.8e-07

Branch types
NOT_BRANCH: 99999970 100%
BRANCH_DIRECT_JUMP: 0 0%
BRANCH_INDIRECT: 0 0%
BRANCH_CONDITIONAL: 0 0%
BRANCH_DIRECT_CALL: 0 0%
BRANCH_INDIRECT_CALL: 0 0%
BRANCH_RETURN: 0 0%
BRANCH_OTHER: 0 0%

