
*** ChampSim Multicore Out-of-Order Simulator ***

Warmup Instructions: 100000000
Simulation Instructions: 1000000000
Number of CPUs: 1
LLC sets: 2048
LLC ways: 16
Off-chip DRAM Size: 4096 MB Channels: 1 Width: 64-bit Data Rate: 3200 MT/s

CPU 0 runs /scratch/user/kevin.weston/dpc3-traces/410.champsimtrace.xz
CPU 0 Bimodal branch predictor
Initialize SRRIP state
Heartbeat CPU 0 instructions: 10000002 cycles: 5771092 heartbeat IPC: 1.73277 cumulative IPC: 1.73277 (Simulation time: 0 hr 0 min 30 sec) 
Heartbeat CPU 0 instructions: 20000000 cycles: 11542325 heartbeat IPC: 1.73273 cumulative IPC: 1.73275 (Simulation time: 0 hr 1 min 1 sec) 
Heartbeat CPU 0 instructions: 30000000 cycles: 17313678 heartbeat IPC: 1.7327 cumulative IPC: 1.73273 (Simulation time: 0 hr 1 min 32 sec) 
Heartbeat CPU 0 instructions: 40000000 cycles: 23084902 heartbeat IPC: 1.73273 cumulative IPC: 1.73273 (Simulation time: 0 hr 2 min 3 sec) 
Heartbeat CPU 0 instructions: 50000000 cycles: 28856202 heartbeat IPC: 1.73271 cumulative IPC: 1.73273 (Simulation time: 0 hr 2 min 34 sec) 
Heartbeat CPU 0 instructions: 60000003 cycles: 34627198 heartbeat IPC: 1.7328 cumulative IPC: 1.73274 (Simulation time: 0 hr 3 min 6 sec) 
Heartbeat CPU 0 instructions: 70000000 cycles: 40398080 heartbeat IPC: 1.73284 cumulative IPC: 1.73276 (Simulation time: 0 hr 3 min 37 sec) 
Heartbeat CPU 0 instructions: 80000001 cycles: 46168944 heartbeat IPC: 1.73284 cumulative IPC: 1.73277 (Simulation time: 0 hr 4 min 8 sec) 
Heartbeat CPU 0 instructions: 90000003 cycles: 51939755 heartbeat IPC: 1.73286 cumulative IPC: 1.73278 (Simulation time: 0 hr 4 min 39 sec) 
Heartbeat CPU 0 instructions: 100000002 cycles: 57710535 heartbeat IPC: 1.73287 cumulative IPC: 1.73279 (Simulation time: 0 hr 5 min 10 sec) 

Warmup complete CPU 0 instructions: 100000002 cycles: 57710535 (Simulation time: 0 hr 5 min 10 sec) 

Heartbeat CPU 0 instructions: 110000000 cycles: 72173052 heartbeat IPC: 0.691442 cumulative IPC: 0.691442 (Simulation time: 0 hr 5 min 39 sec) 
Heartbeat CPU 0 instructions: 120000001 cycles: 86600157 heartbeat IPC: 0.69314 cumulative IPC: 0.69229 (Simulation time: 0 hr 6 min 7 sec) 
Heartbeat CPU 0 instructions: 130000000 cycles: 101061911 heartbeat IPC: 0.691479 cumulative IPC: 0.69202 (Simulation time: 0 hr 6 min 35 sec) 
Heartbeat CPU 0 instructions: 140000000 cycles: 115450224 heartbeat IPC: 0.695009 cumulative IPC: 0.692764 (Simulation time: 0 hr 7 min 4 sec) 
Heartbeat CPU 0 instructions: 150000000 cycles: 129837809 heartbeat IPC: 0.695044 cumulative IPC: 0.693219 (Simulation time: 0 hr 7 min 32 sec) 
Heartbeat CPU 0 instructions: 160000003 cycles: 144253991 heartbeat IPC: 0.693665 cumulative IPC: 0.693293 (Simulation time: 0 hr 8 min 1 sec) 
Heartbeat CPU 0 instructions: 170000001 cycles: 158698118 heartbeat IPC: 0.692323 cumulative IPC: 0.693155 (Simulation time: 0 hr 8 min 29 sec) 
Heartbeat CPU 0 instructions: 180000002 cycles: 173069718 heartbeat IPC: 0.695817 cumulative IPC: 0.693486 (Simulation time: 0 hr 8 min 58 sec) 
Heartbeat CPU 0 instructions: 190000000 cycles: 187522503 heartbeat IPC: 0.691908 cumulative IPC: 0.69331 (Simulation time: 0 hr 9 min 26 sec) 
Heartbeat CPU 0 instructions: 200000003 cycles: 202015511 heartbeat IPC: 0.689988 cumulative IPC: 0.692977 (Simulation time: 0 hr 9 min 55 sec) 
Heartbeat CPU 0 instructions: 210000003 cycles: 216486401 heartbeat IPC: 0.691042 cumulative IPC: 0.692801 (Simulation time: 0 hr 10 min 23 sec) 
Heartbeat CPU 0 instructions: 220000000 cycles: 230974896 heartbeat IPC: 0.690203 cumulative IPC: 0.692583 (Simulation time: 0 hr 10 min 52 sec) 
Heartbeat CPU 0 instructions: 230000000 cycles: 245413178 heartbeat IPC: 0.692603 cumulative IPC: 0.692585 (Simulation time: 0 hr 11 min 20 sec) 
Heartbeat CPU 0 instructions: 240000002 cycles: 259816489 heartbeat IPC: 0.694285 cumulative IPC: 0.692706 (Simulation time: 0 hr 11 min 49 sec) 
Heartbeat CPU 0 instructions: 250000000 cycles: 274226820 heartbeat IPC: 0.693946 cumulative IPC: 0.692789 (Simulation time: 0 hr 12 min 17 sec) 
Heartbeat CPU 0 instructions: 260000003 cycles: 288606272 heartbeat IPC: 0.695437 cumulative IPC: 0.692953 (Simulation time: 0 hr 12 min 46 sec) 
Heartbeat CPU 0 instructions: 270000003 cycles: 303053097 heartbeat IPC: 0.692194 cumulative IPC: 0.692909 (Simulation time: 0 hr 13 min 14 sec) 
Heartbeat CPU 0 instructions: 280000002 cycles: 317481662 heartbeat IPC: 0.69307 cumulative IPC: 0.692918 (Simulation time: 0 hr 13 min 43 sec) 
Heartbeat CPU 0 instructions: 290000001 cycles: 331896767 heartbeat IPC: 0.693717 cumulative IPC: 0.69296 (Simulation time: 0 hr 14 min 12 sec) 
Heartbeat CPU 0 instructions: 300000001 cycles: 346399756 heartbeat IPC: 0.689513 cumulative IPC: 0.692787 (Simulation time: 0 hr 14 min 40 sec) 
Heartbeat CPU 0 instructions: 310000001 cycles: 360818717 heartbeat IPC: 0.693531 cumulative IPC: 0.692822 (Simulation time: 0 hr 15 min 9 sec) 
Heartbeat CPU 0 instructions: 320000001 cycles: 375296160 heartbeat IPC: 0.69073 cumulative IPC: 0.692727 (Simulation time: 0 hr 15 min 38 sec) 
Heartbeat CPU 0 instructions: 330000000 cycles: 389716729 heartbeat IPC: 0.693454 cumulative IPC: 0.692758 (Simulation time: 0 hr 16 min 6 sec) 
Heartbeat CPU 0 instructions: 340000000 cycles: 404127323 heartbeat IPC: 0.693934 cumulative IPC: 0.692807 (Simulation time: 0 hr 16 min 35 sec) 
Heartbeat CPU 0 instructions: 350000001 cycles: 427519533 heartbeat IPC: 0.427493 cumulative IPC: 0.676025 (Simulation time: 0 hr 17 min 3 sec) 
Heartbeat CPU 0 instructions: 360000002 cycles: 457167204 heartbeat IPC: 0.337295 cumulative IPC: 0.650884 (Simulation time: 0 hr 17 min 31 sec) 
Heartbeat CPU 0 instructions: 370000003 cycles: 480121757 heartbeat IPC: 0.435643 cumulative IPC: 0.639188 (Simulation time: 0 hr 17 min 57 sec) 
Heartbeat CPU 0 instructions: 380000000 cycles: 499847428 heartbeat IPC: 0.506953 cumulative IPC: 0.633288 (Simulation time: 0 hr 18 min 25 sec) 
Heartbeat CPU 0 instructions: 390000000 cycles: 514410963 heartbeat IPC: 0.686646 cumulative IPC: 0.63499 (Simulation time: 0 hr 18 min 54 sec) 
Heartbeat CPU 0 instructions: 400000002 cycles: 529033127 heartbeat IPC: 0.683893 cumulative IPC: 0.636507 (Simulation time: 0 hr 19 min 23 sec) 
Heartbeat CPU 0 instructions: 410000003 cycles: 543644741 heartbeat IPC: 0.684387 cumulative IPC: 0.637946 (Simulation time: 0 hr 19 min 51 sec) 
Heartbeat CPU 0 instructions: 420000002 cycles: 558230468 heartbeat IPC: 0.685602 cumulative IPC: 0.639335 (Simulation time: 0 hr 20 min 20 sec) 
Heartbeat CPU 0 instructions: 430000001 cycles: 572856700 heartbeat IPC: 0.683703 cumulative IPC: 0.640595 (Simulation time: 0 hr 20 min 49 sec) 
Heartbeat CPU 0 instructions: 440000000 cycles: 587457566 heartbeat IPC: 0.684891 cumulative IPC: 0.641816 (Simulation time: 0 hr 21 min 17 sec) 
Heartbeat CPU 0 instructions: 450000002 cycles: 602027098 heartbeat IPC: 0.686364 cumulative IPC: 0.643008 (Simulation time: 0 hr 21 min 46 sec) 
Heartbeat CPU 0 instructions: 460000000 cycles: 616599846 heartbeat IPC: 0.686212 cumulative IPC: 0.644135 (Simulation time: 0 hr 22 min 15 sec) 
Heartbeat CPU 0 instructions: 470000002 cycles: 631214922 heartbeat IPC: 0.684225 cumulative IPC: 0.645156 (Simulation time: 0 hr 22 min 44 sec) 
Heartbeat CPU 0 instructions: 480000000 cycles: 645850718 heartbeat IPC: 0.683256 cumulative IPC: 0.646104 (Simulation time: 0 hr 23 min 12 sec) 
Heartbeat CPU 0 instructions: 490000003 cycles: 660442962 heartbeat IPC: 0.685296 cumulative IPC: 0.647053 (Simulation time: 0 hr 23 min 41 sec) 
Heartbeat CPU 0 instructions: 500000003 cycles: 675087254 heartbeat IPC: 0.68286 cumulative IPC: 0.647903 (Simulation time: 0 hr 24 min 10 sec) 
Heartbeat CPU 0 instructions: 510000000 cycles: 689671403 heartbeat IPC: 0.685676 cumulative IPC: 0.648774 (Simulation time: 0 hr 24 min 39 sec) 
Heartbeat CPU 0 instructions: 520000002 cycles: 704302805 heartbeat IPC: 0.683462 cumulative IPC: 0.649559 (Simulation time: 0 hr 25 min 8 sec) 
Heartbeat CPU 0 instructions: 530000000 cycles: 718855704 heartbeat IPC: 0.687148 cumulative IPC: 0.650387 (Simulation time: 0 hr 25 min 36 sec) 
Heartbeat CPU 0 instructions: 540000001 cycles: 733410393 heartbeat IPC: 0.687064 cumulative IPC: 0.651177 (Simulation time: 0 hr 26 min 5 sec) 
Heartbeat CPU 0 instructions: 550000000 cycles: 748014474 heartbeat IPC: 0.68474 cumulative IPC: 0.651887 (Simulation time: 0 hr 26 min 33 sec) 
Heartbeat CPU 0 instructions: 560000002 cycles: 762603818 heartbeat IPC: 0.685432 cumulative IPC: 0.652581 (Simulation time: 0 hr 27 min 2 sec) 
Heartbeat CPU 0 instructions: 570000002 cycles: 777152335 heartbeat IPC: 0.687355 cumulative IPC: 0.653284 (Simulation time: 0 hr 27 min 31 sec) 
Heartbeat CPU 0 instructions: 580000000 cycles: 791742347 heartbeat IPC: 0.6854 cumulative IPC: 0.653923 (Simulation time: 0 hr 28 min 0 sec) 
Heartbeat CPU 0 instructions: 590000002 cycles: 806386341 heartbeat IPC: 0.682874 cumulative IPC: 0.654489 (Simulation time: 0 hr 28 min 30 sec) 
Heartbeat CPU 0 instructions: 600000000 cycles: 821014576 heartbeat IPC: 0.683609 cumulative IPC: 0.655047 (Simulation time: 0 hr 28 min 59 sec) 
Heartbeat CPU 0 instructions: 610000001 cycles: 835667508 heartbeat IPC: 0.682457 cumulative IPC: 0.655563 (Simulation time: 0 hr 29 min 28 sec) 
Heartbeat CPU 0 instructions: 620000000 cycles: 850239620 heartbeat IPC: 0.686242 cumulative IPC: 0.656127 (Simulation time: 0 hr 29 min 57 sec) 
Heartbeat CPU 0 instructions: 630000003 cycles: 864788640 heartbeat IPC: 0.687332 cumulative IPC: 0.65669 (Simulation time: 0 hr 30 min 26 sec) 
Heartbeat CPU 0 instructions: 640000000 cycles: 879357772 heartbeat IPC: 0.686382 cumulative IPC: 0.657216 (Simulation time: 0 hr 30 min 56 sec) 
Heartbeat CPU 0 instructions: 650000001 cycles: 893904214 heartbeat IPC: 0.687453 cumulative IPC: 0.657742 (Simulation time: 0 hr 31 min 25 sec) 
Heartbeat CPU 0 instructions: 660000000 cycles: 908467800 heartbeat IPC: 0.686644 cumulative IPC: 0.658237 (Simulation time: 0 hr 31 min 54 sec) 
Heartbeat CPU 0 instructions: 670000002 cycles: 923092326 heartbeat IPC: 0.683783 cumulative IPC: 0.658669 (Simulation time: 0 hr 32 min 23 sec) 
Heartbeat CPU 0 instructions: 680000001 cycles: 937699216 heartbeat IPC: 0.684608 cumulative IPC: 0.659099 (Simulation time: 0 hr 32 min 52 sec) 
Heartbeat CPU 0 instructions: 690000000 cycles: 952325396 heartbeat IPC: 0.683705 cumulative IPC: 0.659502 (Simulation time: 0 hr 33 min 21 sec) 
Heartbeat CPU 0 instructions: 700000000 cycles: 966935541 heartbeat IPC: 0.684456 cumulative IPC: 0.659903 (Simulation time: 0 hr 33 min 51 sec) 
Heartbeat CPU 0 instructions: 710000000 cycles: 981557525 heartbeat IPC: 0.683902 cumulative IPC: 0.660282 (Simulation time: 0 hr 34 min 20 sec) 
Heartbeat CPU 0 instructions: 720000002 cycles: 996115891 heartbeat IPC: 0.68689 cumulative IPC: 0.660695 (Simulation time: 0 hr 34 min 49 sec) 
Heartbeat CPU 0 instructions: 730000000 cycles: 1010678640 heartbeat IPC: 0.686683 cumulative IPC: 0.661092 (Simulation time: 0 hr 35 min 18 sec) 
Heartbeat CPU 0 instructions: 740000002 cycles: 1031001229 heartbeat IPC: 0.492063 cumulative IPC: 0.657563 (Simulation time: 0 hr 35 min 46 sec) 
Heartbeat CPU 0 instructions: 750000000 cycles: 1057959442 heartbeat IPC: 0.370944 cumulative IPC: 0.649838 (Simulation time: 0 hr 36 min 12 sec) 
Heartbeat CPU 0 instructions: 760000000 cycles: 1086750342 heartbeat IPC: 0.347332 cumulative IPC: 0.641375 (Simulation time: 0 hr 36 min 42 sec) 
Heartbeat CPU 0 instructions: 770000000 cycles: 1116897296 heartbeat IPC: 0.331708 cumulative IPC: 0.632561 (Simulation time: 0 hr 37 min 16 sec) 
Heartbeat CPU 0 instructions: 780000000 cycles: 1147042821 heartbeat IPC: 0.331724 cumulative IPC: 0.624236 (Simulation time: 0 hr 37 min 49 sec) 
Heartbeat CPU 0 instructions: 790000003 cycles: 1170371540 heartbeat IPC: 0.428656 cumulative IPC: 0.620135 (Simulation time: 0 hr 38 min 16 sec) 
Heartbeat CPU 0 instructions: 800000001 cycles: 1188350313 heartbeat IPC: 0.556211 cumulative IPC: 0.619119 (Simulation time: 0 hr 38 min 37 sec) 
Heartbeat CPU 0 instructions: 810000001 cycles: 1220281823 heartbeat IPC: 0.31317 cumulative IPC: 0.610715 (Simulation time: 0 hr 39 min 7 sec) 
Heartbeat CPU 0 instructions: 820000001 cycles: 1249482312 heartbeat IPC: 0.34246 cumulative IPC: 0.604142 (Simulation time: 0 hr 39 min 36 sec) 
Heartbeat CPU 0 instructions: 830000001 cycles: 1277897702 heartbeat IPC: 0.351922 cumulative IPC: 0.598269 (Simulation time: 0 hr 40 min 6 sec) 
Heartbeat CPU 0 instructions: 840000003 cycles: 1298783166 heartbeat IPC: 0.478802 cumulative IPC: 0.596258 (Simulation time: 0 hr 40 min 36 sec) 
Heartbeat CPU 0 instructions: 850000001 cycles: 1313367792 heartbeat IPC: 0.685653 cumulative IPC: 0.597297 (Simulation time: 0 hr 41 min 6 sec) 
Heartbeat CPU 0 instructions: 860000003 cycles: 1327736416 heartbeat IPC: 0.695961 cumulative IPC: 0.598413 (Simulation time: 0 hr 41 min 35 sec) 
Heartbeat CPU 0 instructions: 870000002 cycles: 1342184833 heartbeat IPC: 0.692117 cumulative IPC: 0.599467 (Simulation time: 0 hr 42 min 4 sec) 
Heartbeat CPU 0 instructions: 880000000 cycles: 1356587425 heartbeat IPC: 0.694319 cumulative IPC: 0.600519 (Simulation time: 0 hr 42 min 33 sec) 
Heartbeat CPU 0 instructions: 890000003 cycles: 1371064033 heartbeat IPC: 0.69077 cumulative IPC: 0.601514 (Simulation time: 0 hr 43 min 2 sec) 
Heartbeat CPU 0 instructions: 900000000 cycles: 1385504183 heartbeat IPC: 0.692513 cumulative IPC: 0.602503 (Simulation time: 0 hr 43 min 31 sec) 
Heartbeat CPU 0 instructions: 910000003 cycles: 1399932767 heartbeat IPC: 0.693069 cumulative IPC: 0.603477 (Simulation time: 0 hr 44 min 0 sec) 
Heartbeat CPU 0 instructions: 920000003 cycles: 1414345395 heartbeat IPC: 0.693836 cumulative IPC: 0.604437 (Simulation time: 0 hr 44 min 29 sec) 
Heartbeat CPU 0 instructions: 930000001 cycles: 1428811403 heartbeat IPC: 0.691276 cumulative IPC: 0.605353 (Simulation time: 0 hr 44 min 59 sec) 
Heartbeat CPU 0 instructions: 940000003 cycles: 1443293750 heartbeat IPC: 0.690496 cumulative IPC: 0.606243 (Simulation time: 0 hr 45 min 28 sec) 
Heartbeat CPU 0 instructions: 950000002 cycles: 1457733892 heartbeat IPC: 0.692514 cumulative IPC: 0.607133 (Simulation time: 0 hr 45 min 57 sec) 
Heartbeat CPU 0 instructions: 960000000 cycles: 1472192467 heartbeat IPC: 0.691631 cumulative IPC: 0.607996 (Simulation time: 0 hr 46 min 26 sec) 
Heartbeat CPU 0 instructions: 970000002 cycles: 1486624929 heartbeat IPC: 0.692883 cumulative IPC: 0.608854 (Simulation time: 0 hr 46 min 55 sec) 
Heartbeat CPU 0 instructions: 980000002 cycles: 1501093112 heartbeat IPC: 0.691172 cumulative IPC: 0.609679 (Simulation time: 0 hr 47 min 24 sec) 
Heartbeat CPU 0 instructions: 990000000 cycles: 1515472202 heartbeat IPC: 0.695454 cumulative IPC: 0.610525 (Simulation time: 0 hr 47 min 53 sec) 
Heartbeat CPU 0 instructions: 1000000001 cycles: 1529888327 heartbeat IPC: 0.693668 cumulative IPC: 0.611339 (Simulation time: 0 hr 48 min 23 sec) 
Heartbeat CPU 0 instructions: 1010000001 cycles: 1544315602 heartbeat IPC: 0.693132 cumulative IPC: 0.612133 (Simulation time: 0 hr 48 min 52 sec) 
Heartbeat CPU 0 instructions: 1020000002 cycles: 1558732199 heartbeat IPC: 0.693645 cumulative IPC: 0.612916 (Simulation time: 0 hr 49 min 21 sec) 
Heartbeat CPU 0 instructions: 1030000001 cycles: 1573106013 heartbeat IPC: 0.69571 cumulative IPC: 0.613701 (Simulation time: 0 hr 49 min 50 sec) 
Heartbeat CPU 0 instructions: 1040000001 cycles: 1587545846 heartbeat IPC: 0.692529 cumulative IPC: 0.614445 (Simulation time: 0 hr 50 min 19 sec) 
Heartbeat CPU 0 instructions: 1050000000 cycles: 1602051462 heartbeat IPC: 0.689388 cumulative IPC: 0.615149 (Simulation time: 0 hr 50 min 48 sec) 
Heartbeat CPU 0 instructions: 1060000003 cycles: 1616503216 heartbeat IPC: 0.691958 cumulative IPC: 0.615861 (Simulation time: 0 hr 51 min 18 sec) 
Heartbeat CPU 0 instructions: 1070000001 cycles: 1631027245 heartbeat IPC: 0.688514 cumulative IPC: 0.616532 (Simulation time: 0 hr 51 min 47 sec) 
Heartbeat CPU 0 instructions: 1080000001 cycles: 1645431837 heartbeat IPC: 0.694223 cumulative IPC: 0.617237 (Simulation time: 0 hr 52 min 16 sec) 
Heartbeat CPU 0 instructions: 1090000000 cycles: 1659833346 heartbeat IPC: 0.694372 cumulative IPC: 0.61793 (Simulation time: 0 hr 52 min 45 sec) 
Heartbeat CPU 0 instructions: 1100000000 cycles: 1674252816 heartbeat IPC: 0.693507 cumulative IPC: 0.618604 (Simulation time: 0 hr 53 min 14 sec) 
Finished CPU 0 instructions: 1000000000 cycles: 1616542290 cumulative IPC: 0.618604 (Simulation time: 0 hr 53 min 14 sec) 

ChampSim completed all CPUs

Region of Interest Statistics

CPU 0 cumulative IPC: 0.618604 instructions: 1000000000 cycles: 1616542290
L1D TOTAL     ACCESS:  450470329  HIT:  430106125  MISS:   20364204
L1D LOAD      ACCESS:  380476300  HIT:  360594506  MISS:   19881794
L1D RFO       ACCESS:   69994029  HIT:   69511619  MISS:     482410
L1D PREFETCH  ACCESS:          0  HIT:          0  MISS:          0
L1D WRITEBACK ACCESS:          0  HIT:          0  MISS:          0
L1D PREFETCH  REQUESTED:          0  ISSUED:          0  USEFUL:          0  USELESS:          0
L1D AVERAGE MISS LATENCY: 297.521 cycles
L1I TOTAL     ACCESS:  152465378  HIT:  152465290  MISS:         88
L1I LOAD      ACCESS:  152465378  HIT:  152465290  MISS:         88
L1I RFO       ACCESS:          0  HIT:          0  MISS:          0
L1I PREFETCH  ACCESS:          0  HIT:          0  MISS:          0
L1I WRITEBACK ACCESS:          0  HIT:          0  MISS:          0
L1I PREFETCH  REQUESTED:          0  ISSUED:          0  USEFUL:          0  USELESS:          0
L1I AVERAGE MISS LATENCY: 219.364 cycles
L2C TOTAL     ACCESS:   21625618  HIT:    2967386  MISS:   18658232
L2C LOAD      ACCESS:   19874819  HIT:    1633186  MISS:   18241633
L2C RFO       ACCESS:     481768  HIT:      72949  MISS:     408819
L2C PREFETCH  ACCESS:          0  HIT:          0  MISS:          0
L2C WRITEBACK ACCESS:    1269031  HIT:    1261251  MISS:       7780
L2C PREFETCH  REQUESTED:          0  ISSUED:          0  USEFUL:          0  USELESS:          0
L2C AVERAGE MISS LATENCY: 310.59 cycles
LLC TOTAL     ACCESS:   19743288  HIT:    1100833  MISS:   18642455
LLC LOAD      ACCESS:   18241633  HIT:       8310  MISS:   18233323
LLC RFO       ACCESS:     408819  HIT:          0  MISS:     408819
LLC PREFETCH  ACCESS:          0  HIT:          0  MISS:          0
LLC WRITEBACK ACCESS:    1092836  HIT:    1092523  MISS:        313
LLC PREFETCH  REQUESTED:          0  ISSUED:          0  USEFUL:          0  USELESS:          0
LLC AVERAGE MISS LATENCY: 269.901 cycles
Major fault: 0 Minor fault: 108280

DRAM Statistics
 CHANNEL 0
 RQ ROW_BUFFER_HIT:   12367954  ROW_BUFFER_MISS:    6274188
 DBUS_CONGESTED:    1165550
 WQ ROW_BUFFER_HIT:     693612  ROW_BUFFER_MISS:     391183  FULL:          0

 AVG_CONGESTED_CYCLE: 5

CPU 0 Branch Prediction Accuracy: 85.1428% MPKI: 5.85696 Average ROB Occupancy at Mispredict: 131.086

Branch types
NOT_BRANCH: 960578062 96.0578%
BRANCH_DIRECT_JUMP: 5163018 0.516302%
BRANCH_INDIRECT: 0 0%
BRANCH_CONDITIONAL: 34258555 3.42586%
BRANCH_DIRECT_CALL: 2 2e-07%
BRANCH_INDIRECT_CALL: 0 0%
BRANCH_RETURN: 2 2e-07%
BRANCH_OTHER: 0 0%

