
*** ChampSim Multicore Out-of-Order Simulator ***

Warmup Instructions: 100000000
Simulation Instructions: 1000000000
Number of CPUs: 1
LLC sets: 2048
LLC ways: 16
Off-chip DRAM Size: 4096 MB Channels: 1 Width: 64-bit Data Rate: 3200 MT/s

CPU 0 runs /scratch/user/kevin.weston/dpc3-traces/410.champsimtrace.xz
CPU 0 Bimodal branch predictor
Initialize DRRIP state
Assign rand_sets[0]: 454  LLC: 2048
rand_sets[0]: 454
Assign rand_sets[1]: 1662  LLC: 2048
rand_sets[1]: 1662
Assign rand_sets[2]: 1921  LLC: 2048
rand_sets[2]: 1921
Assign rand_sets[3]: 1131  LLC: 2048
rand_sets[3]: 1131
Assign rand_sets[4]: 331  LLC: 2048
rand_sets[4]: 331
Assign rand_sets[5]: 1531  LLC: 2048
rand_sets[5]: 1531
Assign rand_sets[6]: 482  LLC: 2048
rand_sets[6]: 482
Assign rand_sets[7]: 1275  LLC: 2048
rand_sets[7]: 1275
Assign rand_sets[8]: 1876  LLC: 2048
rand_sets[8]: 1876
Assign rand_sets[9]: 2038  LLC: 2048
rand_sets[9]: 2038
Assign rand_sets[10]: 701  LLC: 2048
rand_sets[10]: 701
Assign rand_sets[11]: 479  LLC: 2048
rand_sets[11]: 479
Assign rand_sets[12]: 892  LLC: 2048
rand_sets[12]: 892
Assign rand_sets[13]: 1820  LLC: 2048
rand_sets[13]: 1820
Assign rand_sets[14]: 1505  LLC: 2048
rand_sets[14]: 1505
Assign rand_sets[15]: 1159  LLC: 2048
rand_sets[15]: 1159
Assign rand_sets[16]: 513  LLC: 2048
rand_sets[16]: 513
Assign rand_sets[17]: 703  LLC: 2048
rand_sets[17]: 703
Assign rand_sets[18]: 561  LLC: 2048
rand_sets[18]: 561
Assign rand_sets[19]: 990  LLC: 2048
rand_sets[19]: 990
Assign rand_sets[20]: 342  LLC: 2048
rand_sets[20]: 342
Assign rand_sets[21]: 882  LLC: 2048
rand_sets[21]: 882
Assign rand_sets[22]: 15  LLC: 2048
rand_sets[22]: 15
Assign rand_sets[23]: 71  LLC: 2048
rand_sets[23]: 71
Assign rand_sets[24]: 1127  LLC: 2048
rand_sets[24]: 1127
Assign rand_sets[25]: 1382  LLC: 2048
rand_sets[25]: 1382
Assign rand_sets[26]: 647  LLC: 2048
rand_sets[26]: 647
Assign rand_sets[27]: 857  LLC: 2048
rand_sets[27]: 857
Assign rand_sets[28]: 1450  LLC: 2048
rand_sets[28]: 1450
Assign rand_sets[29]: 1160  LLC: 2048
rand_sets[29]: 1160
Assign rand_sets[30]: 1852  LLC: 2048
rand_sets[30]: 1852
Assign rand_sets[31]: 1881  LLC: 2048
rand_sets[31]: 1881
Assign rand_sets[32]: 1770  LLC: 2048
rand_sets[32]: 1770
Assign rand_sets[33]: 1622  LLC: 2048
rand_sets[33]: 1622
Assign rand_sets[34]: 275  LLC: 2048
rand_sets[34]: 275
Assign rand_sets[35]: 635  LLC: 2048
rand_sets[35]: 635
Assign rand_sets[36]: 466  LLC: 2048
rand_sets[36]: 466
Assign rand_sets[37]: 1413  LLC: 2048
rand_sets[37]: 1413
Assign rand_sets[38]: 417  LLC: 2048
rand_sets[38]: 417
Assign rand_sets[39]: 472  LLC: 2048
rand_sets[39]: 472
Assign rand_sets[40]: 1340  LLC: 2048
rand_sets[40]: 1340
Assign rand_sets[41]: 852  LLC: 2048
rand_sets[41]: 852
Assign rand_sets[42]: 1365  LLC: 2048
rand_sets[42]: 1365
Assign rand_sets[43]: 47  LLC: 2048
rand_sets[43]: 47
Assign rand_sets[44]: 823  LLC: 2048
rand_sets[44]: 823
Assign rand_sets[45]: 686  LLC: 2048
rand_sets[45]: 686
Assign rand_sets[46]: 1637  LLC: 2048
rand_sets[46]: 1637
Assign rand_sets[47]: 1115  LLC: 2048
rand_sets[47]: 1115
Assign rand_sets[48]: 986  LLC: 2048
rand_sets[48]: 986
Assign rand_sets[49]: 258  LLC: 2048
rand_sets[49]: 258
Assign rand_sets[50]: 633  LLC: 2048
rand_sets[50]: 633
Assign rand_sets[51]: 920  LLC: 2048
rand_sets[51]: 920
Assign rand_sets[52]: 204  LLC: 2048
rand_sets[52]: 204
Assign rand_sets[53]: 227  LLC: 2048
rand_sets[53]: 227
Assign rand_sets[54]: 1818  LLC: 2048
rand_sets[54]: 1818
Assign rand_sets[55]: 886  LLC: 2048
rand_sets[55]: 886
Assign rand_sets[56]: 1422  LLC: 2048
rand_sets[56]: 1422
Assign rand_sets[57]: 607  LLC: 2048
rand_sets[57]: 607
Assign rand_sets[58]: 217  LLC: 2048
rand_sets[58]: 217
Assign rand_sets[59]: 1945  LLC: 2048
rand_sets[59]: 1945
Assign rand_sets[60]: 143  LLC: 2048
rand_sets[60]: 143
Assign rand_sets[61]: 1311  LLC: 2048
rand_sets[61]: 1311
Assign rand_sets[62]: 319  LLC: 2048
rand_sets[62]: 319
Assign rand_sets[63]: 1846  LLC: 2048
rand_sets[63]: 1846
Heartbeat CPU 0 instructions: 10000002 cycles: 5771089 heartbeat IPC: 1.73278 cumulative IPC: 1.73278 (Simulation time: 0 hr 0 min 31 sec) 
Heartbeat CPU 0 instructions: 20000000 cycles: 11542323 heartbeat IPC: 1.73273 cumulative IPC: 1.73275 (Simulation time: 0 hr 1 min 2 sec) 
Heartbeat CPU 0 instructions: 30000000 cycles: 17313668 heartbeat IPC: 1.7327 cumulative IPC: 1.73274 (Simulation time: 0 hr 1 min 33 sec) 
Heartbeat CPU 0 instructions: 40000000 cycles: 23084892 heartbeat IPC: 1.73273 cumulative IPC: 1.73274 (Simulation time: 0 hr 2 min 4 sec) 
Heartbeat CPU 0 instructions: 50000000 cycles: 28856186 heartbeat IPC: 1.73271 cumulative IPC: 1.73273 (Simulation time: 0 hr 2 min 35 sec) 
Heartbeat CPU 0 instructions: 60000003 cycles: 34627183 heartbeat IPC: 1.7328 cumulative IPC: 1.73274 (Simulation time: 0 hr 3 min 6 sec) 
Heartbeat CPU 0 instructions: 70000000 cycles: 40398067 heartbeat IPC: 1.73284 cumulative IPC: 1.73276 (Simulation time: 0 hr 3 min 37 sec) 
Heartbeat CPU 0 instructions: 80000001 cycles: 46168930 heartbeat IPC: 1.73284 cumulative IPC: 1.73277 (Simulation time: 0 hr 4 min 8 sec) 
Heartbeat CPU 0 instructions: 90000003 cycles: 51939741 heartbeat IPC: 1.73286 cumulative IPC: 1.73278 (Simulation time: 0 hr 4 min 39 sec) 
Heartbeat CPU 0 instructions: 100000002 cycles: 57710523 heartbeat IPC: 1.73287 cumulative IPC: 1.73279 (Simulation time: 0 hr 5 min 10 sec) 

Warmup complete CPU 0 instructions: 100000002 cycles: 57710523 (Simulation time: 0 hr 5 min 10 sec) 

Heartbeat CPU 0 instructions: 110000000 cycles: 72160977 heartbeat IPC: 0.69202 cumulative IPC: 0.69202 (Simulation time: 0 hr 5 min 39 sec) 
Heartbeat CPU 0 instructions: 120000001 cycles: 86616638 heartbeat IPC: 0.691771 cumulative IPC: 0.691895 (Simulation time: 0 hr 6 min 7 sec) 
Heartbeat CPU 0 instructions: 130000000 cycles: 101031379 heartbeat IPC: 0.693734 cumulative IPC: 0.692507 (Simulation time: 0 hr 6 min 35 sec) 
Heartbeat CPU 0 instructions: 140000000 cycles: 115458254 heartbeat IPC: 0.693151 cumulative IPC: 0.692668 (Simulation time: 0 hr 7 min 4 sec) 
Heartbeat CPU 0 instructions: 150000000 cycles: 129903587 heartbeat IPC: 0.692265 cumulative IPC: 0.692587 (Simulation time: 0 hr 7 min 32 sec) 
Heartbeat CPU 0 instructions: 160000003 cycles: 144310687 heartbeat IPC: 0.694102 cumulative IPC: 0.692839 (Simulation time: 0 hr 8 min 1 sec) 
Heartbeat CPU 0 instructions: 170000001 cycles: 158787436 heartbeat IPC: 0.690763 cumulative IPC: 0.692542 (Simulation time: 0 hr 8 min 29 sec) 
Heartbeat CPU 0 instructions: 180000002 cycles: 173263566 heartbeat IPC: 0.690792 cumulative IPC: 0.692323 (Simulation time: 0 hr 8 min 58 sec) 
Heartbeat CPU 0 instructions: 190000000 cycles: 187785289 heartbeat IPC: 0.688623 cumulative IPC: 0.69191 (Simulation time: 0 hr 9 min 27 sec) 
Heartbeat CPU 0 instructions: 200000003 cycles: 202197294 heartbeat IPC: 0.693866 cumulative IPC: 0.692105 (Simulation time: 0 hr 9 min 56 sec) 
Heartbeat CPU 0 instructions: 210000003 cycles: 216623377 heartbeat IPC: 0.693189 cumulative IPC: 0.692203 (Simulation time: 0 hr 10 min 24 sec) 
Heartbeat CPU 0 instructions: 220000000 cycles: 231009485 heartbeat IPC: 0.695115 cumulative IPC: 0.692445 (Simulation time: 0 hr 10 min 53 sec) 
Heartbeat CPU 0 instructions: 230000000 cycles: 245469566 heartbeat IPC: 0.691559 cumulative IPC: 0.692377 (Simulation time: 0 hr 11 min 22 sec) 
Heartbeat CPU 0 instructions: 240000002 cycles: 259887815 heartbeat IPC: 0.693566 cumulative IPC: 0.692462 (Simulation time: 0 hr 11 min 50 sec) 
Heartbeat CPU 0 instructions: 250000000 cycles: 274267037 heartbeat IPC: 0.695448 cumulative IPC: 0.69266 (Simulation time: 0 hr 12 min 19 sec) 
Heartbeat CPU 0 instructions: 260000003 cycles: 288688650 heartbeat IPC: 0.693404 cumulative IPC: 0.692706 (Simulation time: 0 hr 12 min 47 sec) 
Heartbeat CPU 0 instructions: 270000003 cycles: 303190652 heartbeat IPC: 0.68956 cumulative IPC: 0.69252 (Simulation time: 0 hr 13 min 16 sec) 
Heartbeat CPU 0 instructions: 280000002 cycles: 317598977 heartbeat IPC: 0.694043 cumulative IPC: 0.692605 (Simulation time: 0 hr 13 min 44 sec) 
Heartbeat CPU 0 instructions: 290000001 cycles: 332038195 heartbeat IPC: 0.692558 cumulative IPC: 0.692602 (Simulation time: 0 hr 14 min 13 sec) 
Heartbeat CPU 0 instructions: 300000001 cycles: 346519017 heartbeat IPC: 0.690569 cumulative IPC: 0.6925 (Simulation time: 0 hr 14 min 41 sec) 
Heartbeat CPU 0 instructions: 310000001 cycles: 360978559 heartbeat IPC: 0.691585 cumulative IPC: 0.692457 (Simulation time: 0 hr 15 min 10 sec) 
Heartbeat CPU 0 instructions: 320000001 cycles: 375455125 heartbeat IPC: 0.690772 cumulative IPC: 0.69238 (Simulation time: 0 hr 15 min 39 sec) 
Heartbeat CPU 0 instructions: 330000000 cycles: 389906149 heartbeat IPC: 0.691992 cumulative IPC: 0.692363 (Simulation time: 0 hr 16 min 7 sec) 
Heartbeat CPU 0 instructions: 340000000 cycles: 404308670 heartbeat IPC: 0.694323 cumulative IPC: 0.692445 (Simulation time: 0 hr 16 min 36 sec) 
Heartbeat CPU 0 instructions: 350000001 cycles: 427723406 heartbeat IPC: 0.427082 cumulative IPC: 0.675652 (Simulation time: 0 hr 17 min 4 sec) 
Heartbeat CPU 0 instructions: 360000002 cycles: 457361057 heartbeat IPC: 0.337409 cumulative IPC: 0.650568 (Simulation time: 0 hr 17 min 31 sec) 
Heartbeat CPU 0 instructions: 370000003 cycles: 480312522 heartbeat IPC: 0.435702 cumulative IPC: 0.638899 (Simulation time: 0 hr 17 min 58 sec) 
Heartbeat CPU 0 instructions: 380000001 cycles: 500023701 heartbeat IPC: 0.507326 cumulative IPC: 0.633036 (Simulation time: 0 hr 18 min 26 sec) 
Heartbeat CPU 0 instructions: 390000000 cycles: 514567304 heartbeat IPC: 0.687587 cumulative IPC: 0.634772 (Simulation time: 0 hr 18 min 54 sec) 
Heartbeat CPU 0 instructions: 400000002 cycles: 529223281 heartbeat IPC: 0.682316 cumulative IPC: 0.63625 (Simulation time: 0 hr 19 min 23 sec) 
Heartbeat CPU 0 instructions: 410000003 cycles: 543864684 heartbeat IPC: 0.682995 cumulative IPC: 0.637658 (Simulation time: 0 hr 19 min 52 sec) 
Heartbeat CPU 0 instructions: 420000002 cycles: 558486172 heartbeat IPC: 0.683925 cumulative IPC: 0.639009 (Simulation time: 0 hr 20 min 21 sec) 
Heartbeat CPU 0 instructions: 430000001 cycles: 573115048 heartbeat IPC: 0.683579 cumulative IPC: 0.640274 (Simulation time: 0 hr 20 min 49 sec) 
Heartbeat CPU 0 instructions: 440000000 cycles: 587716751 heartbeat IPC: 0.684852 cumulative IPC: 0.641502 (Simulation time: 0 hr 21 min 18 sec) 
Heartbeat CPU 0 instructions: 450000002 cycles: 602309912 heartbeat IPC: 0.685253 cumulative IPC: 0.642674 (Simulation time: 0 hr 21 min 47 sec) 
Heartbeat CPU 0 instructions: 460000000 cycles: 616928697 heartbeat IPC: 0.684051 cumulative IPC: 0.643756 (Simulation time: 0 hr 22 min 16 sec) 
Heartbeat CPU 0 instructions: 470000002 cycles: 631561506 heartbeat IPC: 0.683396 cumulative IPC: 0.644767 (Simulation time: 0 hr 22 min 44 sec) 
Heartbeat CPU 0 instructions: 480000000 cycles: 646169097 heartbeat IPC: 0.684575 cumulative IPC: 0.645755 (Simulation time: 0 hr 23 min 13 sec) 
Heartbeat CPU 0 instructions: 490000003 cycles: 660787030 heartbeat IPC: 0.684091 cumulative IPC: 0.646684 (Simulation time: 0 hr 23 min 42 sec) 
Heartbeat CPU 0 instructions: 500000003 cycles: 675411205 heartbeat IPC: 0.683799 cumulative IPC: 0.647563 (Simulation time: 0 hr 24 min 11 sec) 
Heartbeat CPU 0 instructions: 510000000 cycles: 690049186 heartbeat IPC: 0.683154 cumulative IPC: 0.648387 (Simulation time: 0 hr 24 min 39 sec) 
Heartbeat CPU 0 instructions: 520000002 cycles: 704630448 heartbeat IPC: 0.685812 cumulative IPC: 0.64923 (Simulation time: 0 hr 25 min 8 sec) 
Heartbeat CPU 0 instructions: 530000000 cycles: 719210496 heartbeat IPC: 0.685869 cumulative IPC: 0.650038 (Simulation time: 0 hr 25 min 37 sec) 
Heartbeat CPU 0 instructions: 540000001 cycles: 733798488 heartbeat IPC: 0.685495 cumulative IPC: 0.650803 (Simulation time: 0 hr 26 min 5 sec) 
Heartbeat CPU 0 instructions: 550000000 cycles: 748376287 heartbeat IPC: 0.685975 cumulative IPC: 0.651545 (Simulation time: 0 hr 26 min 35 sec) 
Heartbeat CPU 0 instructions: 560000002 cycles: 762988093 heartbeat IPC: 0.684378 cumulative IPC: 0.652225 (Simulation time: 0 hr 27 min 5 sec) 
Heartbeat CPU 0 instructions: 570000002 cycles: 777629133 heartbeat IPC: 0.683012 cumulative IPC: 0.652852 (Simulation time: 0 hr 27 min 34 sec) 
Heartbeat CPU 0 instructions: 580000000 cycles: 792289969 heartbeat IPC: 0.682089 cumulative IPC: 0.653435 (Simulation time: 0 hr 28 min 4 sec) 
Heartbeat CPU 0 instructions: 590000002 cycles: 806869541 heartbeat IPC: 0.685891 cumulative IPC: 0.654067 (Simulation time: 0 hr 28 min 33 sec) 
Heartbeat CPU 0 instructions: 600000000 cycles: 821451610 heartbeat IPC: 0.685774 cumulative IPC: 0.654672 (Simulation time: 0 hr 29 min 2 sec) 
Heartbeat CPU 0 instructions: 610000001 cycles: 836015481 heartbeat IPC: 0.686631 cumulative IPC: 0.65527 (Simulation time: 0 hr 29 min 31 sec) 
Heartbeat CPU 0 instructions: 620000000 cycles: 850592736 heartbeat IPC: 0.686 cumulative IPC: 0.655835 (Simulation time: 0 hr 30 min 1 sec) 
Heartbeat CPU 0 instructions: 630000003 cycles: 865207398 heartbeat IPC: 0.684245 cumulative IPC: 0.656349 (Simulation time: 0 hr 30 min 30 sec) 
Heartbeat CPU 0 instructions: 640000000 cycles: 879767293 heartbeat IPC: 0.686818 cumulative IPC: 0.656889 (Simulation time: 0 hr 30 min 59 sec) 
Heartbeat CPU 0 instructions: 650000001 cycles: 894360869 heartbeat IPC: 0.685233 cumulative IPC: 0.657383 (Simulation time: 0 hr 31 min 28 sec) 
Heartbeat CPU 0 instructions: 660000000 cycles: 908983925 heartbeat IPC: 0.683852 cumulative IPC: 0.657838 (Simulation time: 0 hr 31 min 58 sec) 
Heartbeat CPU 0 instructions: 670000002 cycles: 923582709 heartbeat IPC: 0.684989 cumulative IPC: 0.658296 (Simulation time: 0 hr 32 min 27 sec) 
Heartbeat CPU 0 instructions: 680000001 cycles: 938183002 heartbeat IPC: 0.684918 cumulative IPC: 0.658737 (Simulation time: 0 hr 32 min 56 sec) 
Heartbeat CPU 0 instructions: 690000000 cycles: 952815801 heartbeat IPC: 0.683396 cumulative IPC: 0.65914 (Simulation time: 0 hr 33 min 25 sec) 
Heartbeat CPU 0 instructions: 700000000 cycles: 967404438 heartbeat IPC: 0.685465 cumulative IPC: 0.659563 (Simulation time: 0 hr 33 min 55 sec) 
Heartbeat CPU 0 instructions: 710000000 cycles: 982035711 heartbeat IPC: 0.683468 cumulative IPC: 0.659941 (Simulation time: 0 hr 34 min 24 sec) 
Heartbeat CPU 0 instructions: 720000002 cycles: 996655946 heartbeat IPC: 0.683984 cumulative IPC: 0.660315 (Simulation time: 0 hr 34 min 53 sec) 
Heartbeat CPU 0 instructions: 730000000 cycles: 1011211188 heartbeat IPC: 0.687038 cumulative IPC: 0.660723 (Simulation time: 0 hr 35 min 22 sec) 
Heartbeat CPU 0 instructions: 740000002 cycles: 1031574160 heartbeat IPC: 0.491088 cumulative IPC: 0.657176 (Simulation time: 0 hr 35 min 50 sec) 
Heartbeat CPU 0 instructions: 750000000 cycles: 1058532273 heartbeat IPC: 0.370946 cumulative IPC: 0.649466 (Simulation time: 0 hr 36 min 16 sec) 
Heartbeat CPU 0 instructions: 760000000 cycles: 1087304689 heartbeat IPC: 0.347555 cumulative IPC: 0.641029 (Simulation time: 0 hr 36 min 47 sec) 
Heartbeat CPU 0 instructions: 770000000 cycles: 1117453024 heartbeat IPC: 0.331693 cumulative IPC: 0.632229 (Simulation time: 0 hr 37 min 21 sec) 
Heartbeat CPU 0 instructions: 780000000 cycles: 1147601327 heartbeat IPC: 0.331694 cumulative IPC: 0.623916 (Simulation time: 0 hr 37 min 54 sec) 
Heartbeat CPU 0 instructions: 790000003 cycles: 1169978348 heartbeat IPC: 0.446887 cumulative IPC: 0.620354 (Simulation time: 0 hr 38 min 21 sec) 
Heartbeat CPU 0 instructions: 800000001 cycles: 1187752017 heartbeat IPC: 0.56263 cumulative IPC: 0.619446 (Simulation time: 0 hr 38 min 42 sec) 
Heartbeat CPU 0 instructions: 810000001 cycles: 1219451370 heartbeat IPC: 0.315464 cumulative IPC: 0.611152 (Simulation time: 0 hr 39 min 10 sec) 
Heartbeat CPU 0 instructions: 820000001 cycles: 1246925802 heartbeat IPC: 0.363975 cumulative IPC: 0.605441 (Simulation time: 0 hr 39 min 40 sec) 
Heartbeat CPU 0 instructions: 830000001 cycles: 1275350256 heartbeat IPC: 0.35181 cumulative IPC: 0.599521 (Simulation time: 0 hr 40 min 10 sec) 
Heartbeat CPU 0 instructions: 840000003 cycles: 1296048902 heartbeat IPC: 0.483123 cumulative IPC: 0.597575 (Simulation time: 0 hr 40 min 40 sec) 
Heartbeat CPU 0 instructions: 850000001 cycles: 1310669998 heartbeat IPC: 0.683943 cumulative IPC: 0.598583 (Simulation time: 0 hr 41 min 9 sec) 
Heartbeat CPU 0 instructions: 860000003 cycles: 1325158025 heartbeat IPC: 0.690225 cumulative IPC: 0.59963 (Simulation time: 0 hr 41 min 38 sec) 
Heartbeat CPU 0 instructions: 870000002 cycles: 1339634910 heartbeat IPC: 0.690756 cumulative IPC: 0.600659 (Simulation time: 0 hr 42 min 7 sec) 
Heartbeat CPU 0 instructions: 880000000 cycles: 1354050682 heartbeat IPC: 0.693685 cumulative IPC: 0.601694 (Simulation time: 0 hr 42 min 36 sec) 
Heartbeat CPU 0 instructions: 890000003 cycles: 1368542464 heartbeat IPC: 0.690046 cumulative IPC: 0.602671 (Simulation time: 0 hr 43 min 5 sec) 
Heartbeat CPU 0 instructions: 900000000 cycles: 1382924723 heartbeat IPC: 0.695301 cumulative IPC: 0.603676 (Simulation time: 0 hr 43 min 35 sec) 
Heartbeat CPU 0 instructions: 910000003 cycles: 1397342241 heartbeat IPC: 0.693601 cumulative IPC: 0.604644 (Simulation time: 0 hr 44 min 4 sec) 
Heartbeat CPU 0 instructions: 920000003 cycles: 1411789180 heartbeat IPC: 0.692188 cumulative IPC: 0.605578 (Simulation time: 0 hr 44 min 33 sec) 
Heartbeat CPU 0 instructions: 930000001 cycles: 1426234347 heartbeat IPC: 0.692273 cumulative IPC: 0.606493 (Simulation time: 0 hr 45 min 2 sec) 
Heartbeat CPU 0 instructions: 940000003 cycles: 1440639833 heartbeat IPC: 0.69418 cumulative IPC: 0.607406 (Simulation time: 0 hr 45 min 31 sec) 
Heartbeat CPU 0 instructions: 950000002 cycles: 1455068695 heartbeat IPC: 0.693055 cumulative IPC: 0.608291 (Simulation time: 0 hr 46 min 0 sec) 
Heartbeat CPU 0 instructions: 960000000 cycles: 1469520483 heartbeat IPC: 0.691956 cumulative IPC: 0.609147 (Simulation time: 0 hr 46 min 29 sec) 
Heartbeat CPU 0 instructions: 970000002 cycles: 1483969154 heartbeat IPC: 0.692105 cumulative IPC: 0.609988 (Simulation time: 0 hr 46 min 59 sec) 
Heartbeat CPU 0 instructions: 980000002 cycles: 1498332492 heartbeat IPC: 0.696217 cumulative IPC: 0.610847 (Simulation time: 0 hr 47 min 28 sec) 
Heartbeat CPU 0 instructions: 990000000 cycles: 1512732375 heartbeat IPC: 0.69445 cumulative IPC: 0.611675 (Simulation time: 0 hr 47 min 57 sec) 
Heartbeat CPU 0 instructions: 1000000001 cycles: 1527129381 heartbeat IPC: 0.694589 cumulative IPC: 0.612487 (Simulation time: 0 hr 48 min 26 sec) 
Heartbeat CPU 0 instructions: 1010000001 cycles: 1541506099 heartbeat IPC: 0.695569 cumulative IPC: 0.613292 (Simulation time: 0 hr 48 min 55 sec) 
Heartbeat CPU 0 instructions: 1020000002 cycles: 1555939872 heartbeat IPC: 0.69282 cumulative IPC: 0.614058 (Simulation time: 0 hr 49 min 24 sec) 
Heartbeat CPU 0 instructions: 1030000001 cycles: 1570386867 heartbeat IPC: 0.692185 cumulative IPC: 0.614804 (Simulation time: 0 hr 49 min 53 sec) 
Heartbeat CPU 0 instructions: 1040000001 cycles: 1584850510 heartbeat IPC: 0.691389 cumulative IPC: 0.61553 (Simulation time: 0 hr 50 min 23 sec) 
Heartbeat CPU 0 instructions: 1050000000 cycles: 1599223443 heartbeat IPC: 0.695752 cumulative IPC: 0.616278 (Simulation time: 0 hr 50 min 52 sec) 
Heartbeat CPU 0 instructions: 1060000003 cycles: 1613610237 heartbeat IPC: 0.695082 cumulative IPC: 0.617006 (Simulation time: 0 hr 51 min 21 sec) 
Heartbeat CPU 0 instructions: 1070000001 cycles: 1627989026 heartbeat IPC: 0.695469 cumulative IPC: 0.617725 (Simulation time: 0 hr 51 min 50 sec) 
Heartbeat CPU 0 instructions: 1080000001 cycles: 1642432948 heartbeat IPC: 0.692333 cumulative IPC: 0.618405 (Simulation time: 0 hr 52 min 19 sec) 
Heartbeat CPU 0 instructions: 1090000000 cycles: 1656807092 heartbeat IPC: 0.695694 cumulative IPC: 0.6191 (Simulation time: 0 hr 52 min 48 sec) 
Heartbeat CPU 0 instructions: 1100000000 cycles: 1671165096 heartbeat IPC: 0.696476 cumulative IPC: 0.619788 (Simulation time: 0 hr 53 min 17 sec) 
Finished CPU 0 instructions: 1000000000 cycles: 1613454582 cumulative IPC: 0.619788 (Simulation time: 0 hr 53 min 17 sec) 

ChampSim completed all CPUs

Region of Interest Statistics

CPU 0 cumulative IPC: 0.619788 instructions: 1000000000 cycles: 1613454582
L1D TOTAL     ACCESS:  450505431  HIT:  430141073  MISS:   20364358
L1D LOAD      ACCESS:  380509342  HIT:  360627460  MISS:   19881882
L1D RFO       ACCESS:   69996089  HIT:   69513613  MISS:     482476
L1D PREFETCH  ACCESS:          0  HIT:          0  MISS:          0
L1D WRITEBACK ACCESS:          0  HIT:          0  MISS:          0
L1D PREFETCH  REQUESTED:          0  ISSUED:          0  USEFUL:          0  USELESS:          0
L1D AVERAGE MISS LATENCY: 297.198 cycles
L1I TOTAL     ACCESS:  152465520  HIT:  152465432  MISS:         88
L1I LOAD      ACCESS:  152465520  HIT:  152465432  MISS:         88
L1I RFO       ACCESS:          0  HIT:          0  MISS:          0
L1I PREFETCH  ACCESS:          0  HIT:          0  MISS:          0
L1I WRITEBACK ACCESS:          0  HIT:          0  MISS:          0
L1I PREFETCH  REQUESTED:          0  ISSUED:          0  USEFUL:          0  USELESS:          0
L1I AVERAGE MISS LATENCY: 236.284 cycles
L2C TOTAL     ACCESS:   21625849  HIT:    2967662  MISS:   18658187
L2C LOAD      ACCESS:   19874920  HIT:    1633212  MISS:   18241708
L2C RFO       ACCESS:     481846  HIT:      73027  MISS:     408819
L2C PREFETCH  ACCESS:          0  HIT:          0  MISS:          0
L2C WRITEBACK ACCESS:    1269083  HIT:    1261423  MISS:       7660
L2C PREFETCH  REQUESTED:          0  ISSUED:          0  USEFUL:          0  USELESS:          0
L2C AVERAGE MISS LATENCY: 310.241 cycles
LLC TOTAL     ACCESS:   19743282  HIT:     541850  MISS:   19201432
LLC LOAD      ACCESS:   18241708  HIT:      50276  MISS:   18191432
LLC RFO       ACCESS:     408819  HIT:          1  MISS:     408818
LLC PREFETCH  ACCESS:          0  HIT:          0  MISS:          0
LLC WRITEBACK ACCESS:    1092755  HIT:     491573  MISS:     601182
LLC PREFETCH  REQUESTED:          0  ISSUED:          0  USEFUL:          0  USELESS:          0
LLC AVERAGE MISS LATENCY: 261.705 cycles
Major fault: 0 Minor fault: 108280

DRAM Statistics
 CHANNEL 0
 RQ ROW_BUFFER_HIT:   12378469  ROW_BUFFER_MISS:    6221781
 DBUS_CONGESTED:    1124700
 WQ ROW_BUFFER_HIT:     682494  ROW_BUFFER_MISS:     390342  FULL:          0

 AVG_CONGESTED_CYCLE: 5

CPU 0 Branch Prediction Accuracy: 85.1428% MPKI: 5.85696 Average ROB Occupancy at Mispredict: 130.742

Branch types
NOT_BRANCH: 960578062 96.0578%
BRANCH_DIRECT_JUMP: 5163018 0.516302%
BRANCH_INDIRECT: 0 0%
BRANCH_CONDITIONAL: 34258555 3.42586%
BRANCH_DIRECT_CALL: 2 2e-07%
BRANCH_INDIRECT_CALL: 0 0%
BRANCH_RETURN: 2 2e-07%
BRANCH_OTHER: 0 0%

