
*** ChampSim Multicore Out-of-Order Simulator ***

Warmup Instructions: 100000000
Simulation Instructions: 1000000000
Number of CPUs: 1
LLC sets: 2048
LLC ways: 16
Off-chip DRAM Size: 4096 MB Channels: 1 Width: 64-bit Data Rate: 3200 MT/s

CPU 0 runs /scratch/user/kevin.weston/dpc3-traces/410.champsimtrace.xz
CPU 0 Bimodal branch predictor
Per-line RRPV Initialized
PRRIP State Initialized
Assign SAMPLER_SET[0]: 454  LLC: 2048
SAMPLER_SET[0]: 454
Assign SAMPLER_SET[1]: 1662  LLC: 2048
SAMPLER_SET[1]: 1662
Assign SAMPLER_SET[2]: 1921  LLC: 2048
SAMPLER_SET[2]: 1921
Assign SAMPLER_SET[3]: 1131  LLC: 2048
SAMPLER_SET[3]: 1131
Assign SAMPLER_SET[4]: 331  LLC: 2048
SAMPLER_SET[4]: 331
Assign SAMPLER_SET[5]: 1531  LLC: 2048
SAMPLER_SET[5]: 1531
Assign SAMPLER_SET[6]: 482  LLC: 2048
SAMPLER_SET[6]: 482
Assign SAMPLER_SET[7]: 1275  LLC: 2048
SAMPLER_SET[7]: 1275
Assign SAMPLER_SET[8]: 1876  LLC: 2048
SAMPLER_SET[8]: 1876
Assign SAMPLER_SET[9]: 2038  LLC: 2048
SAMPLER_SET[9]: 2038
Assign SAMPLER_SET[10]: 701  LLC: 2048
SAMPLER_SET[10]: 701
Assign SAMPLER_SET[11]: 479  LLC: 2048
SAMPLER_SET[11]: 479
Assign SAMPLER_SET[12]: 892  LLC: 2048
SAMPLER_SET[12]: 892
Assign SAMPLER_SET[13]: 1820  LLC: 2048
SAMPLER_SET[13]: 1820
Assign SAMPLER_SET[14]: 1505  LLC: 2048
SAMPLER_SET[14]: 1505
Assign SAMPLER_SET[15]: 1159  LLC: 2048
SAMPLER_SET[15]: 1159
Assign SAMPLER_SET[16]: 513  LLC: 2048
SAMPLER_SET[16]: 513
Assign SAMPLER_SET[17]: 703  LLC: 2048
SAMPLER_SET[17]: 703
Assign SAMPLER_SET[18]: 561  LLC: 2048
SAMPLER_SET[18]: 561
Assign SAMPLER_SET[19]: 990  LLC: 2048
SAMPLER_SET[19]: 990
Assign SAMPLER_SET[20]: 342  LLC: 2048
SAMPLER_SET[20]: 342
Assign SAMPLER_SET[21]: 882  LLC: 2048
SAMPLER_SET[21]: 882
Assign SAMPLER_SET[22]: 15  LLC: 2048
SAMPLER_SET[22]: 15
Assign SAMPLER_SET[23]: 71  LLC: 2048
SAMPLER_SET[23]: 71
Assign SAMPLER_SET[24]: 1127  LLC: 2048
SAMPLER_SET[24]: 1127
Assign SAMPLER_SET[25]: 1382  LLC: 2048
SAMPLER_SET[25]: 1382
Assign SAMPLER_SET[26]: 647  LLC: 2048
SAMPLER_SET[26]: 647
Assign SAMPLER_SET[27]: 857  LLC: 2048
SAMPLER_SET[27]: 857
Assign SAMPLER_SET[28]: 1450  LLC: 2048
SAMPLER_SET[28]: 1450
Assign SAMPLER_SET[29]: 1160  LLC: 2048
SAMPLER_SET[29]: 1160
Assign SAMPLER_SET[30]: 1852  LLC: 2048
SAMPLER_SET[30]: 1852
Assign SAMPLER_SET[31]: 1881  LLC: 2048
SAMPLER_SET[31]: 1881
Assign SAMPLER_SET[32]: 1770  LLC: 2048
SAMPLER_SET[32]: 1770
Assign SAMPLER_SET[33]: 1622  LLC: 2048
SAMPLER_SET[33]: 1622
Assign SAMPLER_SET[34]: 275  LLC: 2048
SAMPLER_SET[34]: 275
Assign SAMPLER_SET[35]: 635  LLC: 2048
SAMPLER_SET[35]: 635
Assign SAMPLER_SET[36]: 466  LLC: 2048
SAMPLER_SET[36]: 466
Assign SAMPLER_SET[37]: 1413  LLC: 2048
SAMPLER_SET[37]: 1413
Assign SAMPLER_SET[38]: 417  LLC: 2048
SAMPLER_SET[38]: 417
Assign SAMPLER_SET[39]: 472  LLC: 2048
SAMPLER_SET[39]: 472
Assign SAMPLER_SET[40]: 1340  LLC: 2048
SAMPLER_SET[40]: 1340
Assign SAMPLER_SET[41]: 852  LLC: 2048
SAMPLER_SET[41]: 852
Assign SAMPLER_SET[42]: 1365  LLC: 2048
SAMPLER_SET[42]: 1365
Assign SAMPLER_SET[43]: 47  LLC: 2048
SAMPLER_SET[43]: 47
Assign SAMPLER_SET[44]: 823  LLC: 2048
SAMPLER_SET[44]: 823
Assign SAMPLER_SET[45]: 686  LLC: 2048
SAMPLER_SET[45]: 686
Assign SAMPLER_SET[46]: 1637  LLC: 2048
SAMPLER_SET[46]: 1637
Assign SAMPLER_SET[47]: 1115  LLC: 2048
SAMPLER_SET[47]: 1115
Assign SAMPLER_SET[48]: 986  LLC: 2048
SAMPLER_SET[48]: 986
Assign SAMPLER_SET[49]: 258  LLC: 2048
SAMPLER_SET[49]: 258
Assign SAMPLER_SET[50]: 633  LLC: 2048
SAMPLER_SET[50]: 633
Assign SAMPLER_SET[51]: 920  LLC: 2048
SAMPLER_SET[51]: 920
Assign SAMPLER_SET[52]: 204  LLC: 2048
SAMPLER_SET[52]: 204
Assign SAMPLER_SET[53]: 227  LLC: 2048
SAMPLER_SET[53]: 227
Assign SAMPLER_SET[54]: 1818  LLC: 2048
SAMPLER_SET[54]: 1818
Assign SAMPLER_SET[55]: 886  LLC: 2048
SAMPLER_SET[55]: 886
Assign SAMPLER_SET[56]: 1422  LLC: 2048
SAMPLER_SET[56]: 1422
Assign SAMPLER_SET[57]: 607  LLC: 2048
SAMPLER_SET[57]: 607
Assign SAMPLER_SET[58]: 217  LLC: 2048
SAMPLER_SET[58]: 217
Assign SAMPLER_SET[59]: 1945  LLC: 2048
SAMPLER_SET[59]: 1945
Assign SAMPLER_SET[60]: 143  LLC: 2048
SAMPLER_SET[60]: 143
Assign SAMPLER_SET[61]: 1311  LLC: 2048
SAMPLER_SET[61]: 1311
Assign SAMPLER_SET[62]: 319  LLC: 2048
SAMPLER_SET[62]: 319
Assign SAMPLER_SET[63]: 1846  LLC: 2048
SAMPLER_SET[63]: 1846
Heartbeat CPU 0 instructions: 10000002 cycles: 5771030 heartbeat IPC: 1.73279 cumulative IPC: 1.73279 (Simulation time: 0 hr 0 min 32 sec) 
Heartbeat CPU 0 instructions: 20000000 cycles: 11542192 heartbeat IPC: 1.73275 cumulative IPC: 1.73277 (Simulation time: 0 hr 1 min 3 sec) 
Heartbeat CPU 0 instructions: 30000000 cycles: 17313429 heartbeat IPC: 1.73273 cumulative IPC: 1.73276 (Simulation time: 0 hr 1 min 34 sec) 
Heartbeat CPU 0 instructions: 40000000 cycles: 23084620 heartbeat IPC: 1.73274 cumulative IPC: 1.73276 (Simulation time: 0 hr 2 min 5 sec) 
Heartbeat CPU 0 instructions: 50000000 cycles: 28855901 heartbeat IPC: 1.73272 cumulative IPC: 1.73275 (Simulation time: 0 hr 2 min 36 sec) 
Heartbeat CPU 0 instructions: 60000003 cycles: 34626897 heartbeat IPC: 1.7328 cumulative IPC: 1.73276 (Simulation time: 0 hr 3 min 7 sec) 
Heartbeat CPU 0 instructions: 70000000 cycles: 40397769 heartbeat IPC: 1.73284 cumulative IPC: 1.73277 (Simulation time: 0 hr 3 min 38 sec) 
Heartbeat CPU 0 instructions: 80000001 cycles: 46168597 heartbeat IPC: 1.73285 cumulative IPC: 1.73278 (Simulation time: 0 hr 4 min 9 sec) 
Heartbeat CPU 0 instructions: 90000003 cycles: 51939381 heartbeat IPC: 1.73287 cumulative IPC: 1.73279 (Simulation time: 0 hr 4 min 41 sec) 
Heartbeat CPU 0 instructions: 100000002 cycles: 57710132 heartbeat IPC: 1.73288 cumulative IPC: 1.7328 (Simulation time: 0 hr 5 min 12 sec) 

Warmup complete CPU 0 instructions: 100000002 cycles: 57710132 (Simulation time: 0 hr 5 min 12 sec) 

Heartbeat CPU 0 instructions: 110000000 cycles: 72074178 heartbeat IPC: 0.696183 cumulative IPC: 0.696183 (Simulation time: 0 hr 5 min 40 sec) 
Heartbeat CPU 0 instructions: 120000001 cycles: 86416954 heartbeat IPC: 0.697215 cumulative IPC: 0.696698 (Simulation time: 0 hr 6 min 9 sec) 
Heartbeat CPU 0 instructions: 130000000 cycles: 100762569 heartbeat IPC: 0.697077 cumulative IPC: 0.696825 (Simulation time: 0 hr 6 min 37 sec) 
Heartbeat CPU 0 instructions: 140000000 cycles: 115175750 heartbeat IPC: 0.693809 cumulative IPC: 0.696068 (Simulation time: 0 hr 7 min 6 sec) 
Heartbeat CPU 0 instructions: 150000000 cycles: 129650729 heartbeat IPC: 0.690847 cumulative IPC: 0.695018 (Simulation time: 0 hr 7 min 35 sec) 
Heartbeat CPU 0 instructions: 160000003 cycles: 144072186 heartbeat IPC: 0.693411 cumulative IPC: 0.69475 (Simulation time: 0 hr 8 min 3 sec) 
Heartbeat CPU 0 instructions: 170000001 cycles: 158547613 heartbeat IPC: 0.690826 cumulative IPC: 0.694186 (Simulation time: 0 hr 8 min 32 sec) 
Heartbeat CPU 0 instructions: 180000002 cycles: 172978490 heartbeat IPC: 0.692959 cumulative IPC: 0.694033 (Simulation time: 0 hr 9 min 1 sec) 
Heartbeat CPU 0 instructions: 190000000 cycles: 187404025 heartbeat IPC: 0.693215 cumulative IPC: 0.693942 (Simulation time: 0 hr 9 min 30 sec) 
Heartbeat CPU 0 instructions: 200000003 cycles: 201846219 heartbeat IPC: 0.692416 cumulative IPC: 0.693789 (Simulation time: 0 hr 9 min 58 sec) 
Heartbeat CPU 0 instructions: 210000003 cycles: 216357430 heartbeat IPC: 0.689122 cumulative IPC: 0.693362 (Simulation time: 0 hr 10 min 27 sec) 
Heartbeat CPU 0 instructions: 220000000 cycles: 230848215 heartbeat IPC: 0.690094 cumulative IPC: 0.693088 (Simulation time: 0 hr 10 min 56 sec) 
Heartbeat CPU 0 instructions: 230000000 cycles: 245254616 heartbeat IPC: 0.694136 cumulative IPC: 0.693169 (Simulation time: 0 hr 11 min 25 sec) 
Heartbeat CPU 0 instructions: 240000002 cycles: 259707600 heartbeat IPC: 0.691899 cumulative IPC: 0.693078 (Simulation time: 0 hr 11 min 54 sec) 
Heartbeat CPU 0 instructions: 250000000 cycles: 274121142 heartbeat IPC: 0.693792 cumulative IPC: 0.693126 (Simulation time: 0 hr 12 min 23 sec) 
Heartbeat CPU 0 instructions: 260000003 cycles: 288487715 heartbeat IPC: 0.69606 cumulative IPC: 0.693308 (Simulation time: 0 hr 12 min 51 sec) 
Heartbeat CPU 0 instructions: 270000001 cycles: 302917133 heartbeat IPC: 0.693029 cumulative IPC: 0.693292 (Simulation time: 0 hr 13 min 20 sec) 
Heartbeat CPU 0 instructions: 280000002 cycles: 317362449 heartbeat IPC: 0.692266 cumulative IPC: 0.693235 (Simulation time: 0 hr 13 min 49 sec) 
Heartbeat CPU 0 instructions: 290000001 cycles: 331821669 heartbeat IPC: 0.6916 cumulative IPC: 0.693148 (Simulation time: 0 hr 14 min 18 sec) 
Heartbeat CPU 0 instructions: 300000001 cycles: 346263834 heartbeat IPC: 0.692417 cumulative IPC: 0.693112 (Simulation time: 0 hr 14 min 47 sec) 
Heartbeat CPU 0 instructions: 310000001 cycles: 360662677 heartbeat IPC: 0.6945 cumulative IPC: 0.693178 (Simulation time: 0 hr 15 min 16 sec) 
Heartbeat CPU 0 instructions: 320000001 cycles: 375128310 heartbeat IPC: 0.691294 cumulative IPC: 0.693092 (Simulation time: 0 hr 15 min 45 sec) 
Heartbeat CPU 0 instructions: 330000000 cycles: 389556158 heartbeat IPC: 0.693104 cumulative IPC: 0.693093 (Simulation time: 0 hr 16 min 13 sec) 
Heartbeat CPU 0 instructions: 340000000 cycles: 403970482 heartbeat IPC: 0.693754 cumulative IPC: 0.69312 (Simulation time: 0 hr 16 min 42 sec) 
Heartbeat CPU 0 instructions: 350000001 cycles: 427358781 heartbeat IPC: 0.427564 cumulative IPC: 0.676318 (Simulation time: 0 hr 17 min 11 sec) 
Heartbeat CPU 0 instructions: 360000002 cycles: 456903899 heartbeat IPC: 0.338465 cumulative IPC: 0.651313 (Simulation time: 0 hr 17 min 39 sec) 
Heartbeat CPU 0 instructions: 370000003 cycles: 479828011 heartbeat IPC: 0.436222 cumulative IPC: 0.639632 (Simulation time: 0 hr 18 min 5 sec) 
Heartbeat CPU 0 instructions: 380000001 cycles: 499286549 heartbeat IPC: 0.513913 cumulative IPC: 0.634092 (Simulation time: 0 hr 18 min 33 sec) 
Heartbeat CPU 0 instructions: 390000000 cycles: 513924663 heartbeat IPC: 0.683148 cumulative IPC: 0.635666 (Simulation time: 0 hr 19 min 2 sec) 
Heartbeat CPU 0 instructions: 400000002 cycles: 528573181 heartbeat IPC: 0.682663 cumulative IPC: 0.637128 (Simulation time: 0 hr 19 min 31 sec) 
Heartbeat CPU 0 instructions: 410000003 cycles: 543172216 heartbeat IPC: 0.684977 cumulative IPC: 0.638567 (Simulation time: 0 hr 19 min 59 sec) 
Heartbeat CPU 0 instructions: 420000002 cycles: 557770709 heartbeat IPC: 0.685002 cumulative IPC: 0.639922 (Simulation time: 0 hr 20 min 28 sec) 
Heartbeat CPU 0 instructions: 430000001 cycles: 572361656 heartbeat IPC: 0.685356 cumulative IPC: 0.641211 (Simulation time: 0 hr 20 min 57 sec) 
Heartbeat CPU 0 instructions: 440000000 cycles: 586943139 heartbeat IPC: 0.685801 cumulative IPC: 0.642439 (Simulation time: 0 hr 21 min 26 sec) 
Heartbeat CPU 0 instructions: 450000002 cycles: 601558399 heartbeat IPC: 0.684216 cumulative IPC: 0.643562 (Simulation time: 0 hr 21 min 55 sec) 
Heartbeat CPU 0 instructions: 460000000 cycles: 616208821 heartbeat IPC: 0.682574 cumulative IPC: 0.644585 (Simulation time: 0 hr 22 min 24 sec) 
Heartbeat CPU 0 instructions: 470000002 cycles: 630871428 heartbeat IPC: 0.682007 cumulative IPC: 0.645543 (Simulation time: 0 hr 22 min 53 sec) 
Heartbeat CPU 0 instructions: 480000000 cycles: 645462090 heartbeat IPC: 0.68537 cumulative IPC: 0.646531 (Simulation time: 0 hr 23 min 22 sec) 
Heartbeat CPU 0 instructions: 490000003 cycles: 660085278 heartbeat IPC: 0.683846 cumulative IPC: 0.647437 (Simulation time: 0 hr 23 min 51 sec) 
Heartbeat CPU 0 instructions: 500000003 cycles: 674654392 heartbeat IPC: 0.686384 cumulative IPC: 0.648357 (Simulation time: 0 hr 24 min 20 sec) 
Heartbeat CPU 0 instructions: 510000000 cycles: 689266847 heartbeat IPC: 0.684348 cumulative IPC: 0.64919 (Simulation time: 0 hr 24 min 50 sec) 
Heartbeat CPU 0 instructions: 520000002 cycles: 703826912 heartbeat IPC: 0.68681 cumulative IPC: 0.650037 (Simulation time: 0 hr 25 min 20 sec) 
Heartbeat CPU 0 instructions: 530000000 cycles: 718432346 heartbeat IPC: 0.684677 cumulative IPC: 0.650803 (Simulation time: 0 hr 25 min 49 sec) 
Heartbeat CPU 0 instructions: 540000001 cycles: 733006180 heartbeat IPC: 0.686161 cumulative IPC: 0.651566 (Simulation time: 0 hr 26 min 19 sec) 
Heartbeat CPU 0 instructions: 550000000 cycles: 747618607 heartbeat IPC: 0.684349 cumulative IPC: 0.65226 (Simulation time: 0 hr 26 min 49 sec) 
Heartbeat CPU 0 instructions: 560000002 cycles: 762289607 heartbeat IPC: 0.681617 cumulative IPC: 0.652872 (Simulation time: 0 hr 27 min 19 sec) 
Heartbeat CPU 0 instructions: 570000002 cycles: 776896779 heartbeat IPC: 0.684595 cumulative IPC: 0.653516 (Simulation time: 0 hr 27 min 48 sec) 
Heartbeat CPU 0 instructions: 580000000 cycles: 791495521 heartbeat IPC: 0.68499 cumulative IPC: 0.654142 (Simulation time: 0 hr 28 min 17 sec) 
Heartbeat CPU 0 instructions: 590000002 cycles: 806113676 heartbeat IPC: 0.684081 cumulative IPC: 0.654727 (Simulation time: 0 hr 28 min 47 sec) 
Heartbeat CPU 0 instructions: 600000000 cycles: 820728271 heartbeat IPC: 0.684247 cumulative IPC: 0.655292 (Simulation time: 0 hr 29 min 16 sec) 
Heartbeat CPU 0 instructions: 610000001 cycles: 835383315 heartbeat IPC: 0.682359 cumulative IPC: 0.655802 (Simulation time: 0 hr 29 min 46 sec) 
Heartbeat CPU 0 instructions: 620000000 cycles: 849932714 heartbeat IPC: 0.687314 cumulative IPC: 0.656381 (Simulation time: 0 hr 30 min 15 sec) 
Heartbeat CPU 0 instructions: 630000003 cycles: 864571779 heartbeat IPC: 0.683104 cumulative IPC: 0.656866 (Simulation time: 0 hr 30 min 45 sec) 
Heartbeat CPU 0 instructions: 640000000 cycles: 879170210 heartbeat IPC: 0.685005 cumulative IPC: 0.657366 (Simulation time: 0 hr 31 min 14 sec) 
Heartbeat CPU 0 instructions: 650000001 cycles: 893757889 heartbeat IPC: 0.68551 cumulative IPC: 0.657857 (Simulation time: 0 hr 31 min 44 sec) 
Heartbeat CPU 0 instructions: 660000000 cycles: 908322074 heartbeat IPC: 0.686616 cumulative IPC: 0.65835 (Simulation time: 0 hr 32 min 13 sec) 
Heartbeat CPU 0 instructions: 670000002 cycles: 922958302 heartbeat IPC: 0.683236 cumulative IPC: 0.658771 (Simulation time: 0 hr 32 min 43 sec) 
Heartbeat CPU 0 instructions: 680000001 cycles: 937546681 heartbeat IPC: 0.685477 cumulative IPC: 0.659213 (Simulation time: 0 hr 33 min 12 sec) 
Heartbeat CPU 0 instructions: 690000000 cycles: 952156696 heartbeat IPC: 0.684462 cumulative IPC: 0.659626 (Simulation time: 0 hr 33 min 42 sec) 
Heartbeat CPU 0 instructions: 700000000 cycles: 966722379 heartbeat IPC: 0.686545 cumulative IPC: 0.660057 (Simulation time: 0 hr 34 min 11 sec) 
Heartbeat CPU 0 instructions: 710000000 cycles: 981336100 heartbeat IPC: 0.684288 cumulative IPC: 0.660441 (Simulation time: 0 hr 34 min 41 sec) 
Heartbeat CPU 0 instructions: 720000002 cycles: 995932616 heartbeat IPC: 0.685095 cumulative IPC: 0.660824 (Simulation time: 0 hr 35 min 10 sec) 
Heartbeat CPU 0 instructions: 730000000 cycles: 1010499507 heartbeat IPC: 0.686488 cumulative IPC: 0.661216 (Simulation time: 0 hr 35 min 39 sec) 
Heartbeat CPU 0 instructions: 740000002 cycles: 1030916666 heartbeat IPC: 0.489784 cumulative IPC: 0.65762 (Simulation time: 0 hr 36 min 7 sec) 
Heartbeat CPU 0 instructions: 750000000 cycles: 1057876156 heartbeat IPC: 0.370927 cumulative IPC: 0.649892 (Simulation time: 0 hr 36 min 34 sec) 
Heartbeat CPU 0 instructions: 760000000 cycles: 1086682937 heartbeat IPC: 0.34714 cumulative IPC: 0.641416 (Simulation time: 0 hr 37 min 5 sec) 
Heartbeat CPU 0 instructions: 770000000 cycles: 1116829601 heartbeat IPC: 0.331712 cumulative IPC: 0.632601 (Simulation time: 0 hr 37 min 38 sec) 
Heartbeat CPU 0 instructions: 780000000 cycles: 1146956199 heartbeat IPC: 0.331933 cumulative IPC: 0.624285 (Simulation time: 0 hr 38 min 12 sec) 
Heartbeat CPU 0 instructions: 790000003 cycles: 1169068589 heartbeat IPC: 0.452235 cumulative IPC: 0.620862 (Simulation time: 0 hr 38 min 38 sec) 
Heartbeat CPU 0 instructions: 800000001 cycles: 1186854434 heartbeat IPC: 0.562245 cumulative IPC: 0.619938 (Simulation time: 0 hr 38 min 59 sec) 
Heartbeat CPU 0 instructions: 810000001 cycles: 1218732913 heartbeat IPC: 0.313691 cumulative IPC: 0.61153 (Simulation time: 0 hr 39 min 28 sec) 
Heartbeat CPU 0 instructions: 820000001 cycles: 1247765263 heartbeat IPC: 0.344443 cumulative IPC: 0.605014 (Simulation time: 0 hr 39 min 58 sec) 
Heartbeat CPU 0 instructions: 830000001 cycles: 1276092781 heartbeat IPC: 0.353014 cumulative IPC: 0.599155 (Simulation time: 0 hr 40 min 29 sec) 
Heartbeat CPU 0 instructions: 840000003 cycles: 1296899048 heartbeat IPC: 0.480625 cumulative IPC: 0.597165 (Simulation time: 0 hr 40 min 59 sec) 
Heartbeat CPU 0 instructions: 850000001 cycles: 1311354871 heartbeat IPC: 0.691763 cumulative IPC: 0.598256 (Simulation time: 0 hr 41 min 28 sec) 
Heartbeat CPU 0 instructions: 860000003 cycles: 1325435073 heartbeat IPC: 0.710217 cumulative IPC: 0.599499 (Simulation time: 0 hr 41 min 57 sec) 
Heartbeat CPU 0 instructions: 870000002 cycles: 1339746134 heartbeat IPC: 0.69876 cumulative IPC: 0.600607 (Simulation time: 0 hr 42 min 26 sec) 
Heartbeat CPU 0 instructions: 880000000 cycles: 1354139480 heartbeat IPC: 0.694765 cumulative IPC: 0.601653 (Simulation time: 0 hr 42 min 55 sec) 
Heartbeat CPU 0 instructions: 890000003 cycles: 1368572263 heartbeat IPC: 0.692867 cumulative IPC: 0.602657 (Simulation time: 0 hr 43 min 24 sec) 
Heartbeat CPU 0 instructions: 900000000 cycles: 1383009739 heartbeat IPC: 0.692642 cumulative IPC: 0.603637 (Simulation time: 0 hr 43 min 53 sec) 
Heartbeat CPU 0 instructions: 910000003 cycles: 1397484274 heartbeat IPC: 0.690869 cumulative IPC: 0.60458 (Simulation time: 0 hr 44 min 22 sec) 
Heartbeat CPU 0 instructions: 920000003 cycles: 1411994129 heartbeat IPC: 0.689187 cumulative IPC: 0.605486 (Simulation time: 0 hr 44 min 51 sec) 
Heartbeat CPU 0 instructions: 930000001 cycles: 1426448269 heartbeat IPC: 0.691843 cumulative IPC: 0.606398 (Simulation time: 0 hr 45 min 20 sec) 
Heartbeat CPU 0 instructions: 940000003 cycles: 1440860885 heartbeat IPC: 0.693837 cumulative IPC: 0.607309 (Simulation time: 0 hr 45 min 50 sec) 
Heartbeat CPU 0 instructions: 950000002 cycles: 1455303674 heartbeat IPC: 0.692387 cumulative IPC: 0.608188 (Simulation time: 0 hr 46 min 19 sec) 
Heartbeat CPU 0 instructions: 960000000 cycles: 1469721428 heartbeat IPC: 0.693589 cumulative IPC: 0.60906 (Simulation time: 0 hr 46 min 48 sec) 
Heartbeat CPU 0 instructions: 970000002 cycles: 1484137471 heartbeat IPC: 0.693672 cumulative IPC: 0.609915 (Simulation time: 0 hr 47 min 18 sec) 
Heartbeat CPU 0 instructions: 980000002 cycles: 1498544180 heartbeat IPC: 0.694121 cumulative IPC: 0.610757 (Simulation time: 0 hr 47 min 47 sec) 
Heartbeat CPU 0 instructions: 990000000 cycles: 1512958628 heartbeat IPC: 0.693748 cumulative IPC: 0.611579 (Simulation time: 0 hr 48 min 16 sec) 
Heartbeat CPU 0 instructions: 1000000001 cycles: 1527436932 heartbeat IPC: 0.690689 cumulative IPC: 0.612359 (Simulation time: 0 hr 48 min 46 sec) 
Heartbeat CPU 0 instructions: 1010000001 cycles: 1541861455 heartbeat IPC: 0.693264 cumulative IPC: 0.613145 (Simulation time: 0 hr 49 min 15 sec) 
Heartbeat CPU 0 instructions: 1020000002 cycles: 1556347246 heartbeat IPC: 0.690332 cumulative IPC: 0.613891 (Simulation time: 0 hr 49 min 44 sec) 
Heartbeat CPU 0 instructions: 1030000001 cycles: 1570767418 heartbeat IPC: 0.693473 cumulative IPC: 0.61465 (Simulation time: 0 hr 50 min 13 sec) 
Heartbeat CPU 0 instructions: 1040000001 cycles: 1585174046 heartbeat IPC: 0.694125 cumulative IPC: 0.615399 (Simulation time: 0 hr 50 min 42 sec) 
Heartbeat CPU 0 instructions: 1050000000 cycles: 1599638213 heartbeat IPC: 0.691364 cumulative IPC: 0.616112 (Simulation time: 0 hr 51 min 12 sec) 
Heartbeat CPU 0 instructions: 1060000003 cycles: 1614137387 heartbeat IPC: 0.689695 cumulative IPC: 0.616797 (Simulation time: 0 hr 51 min 41 sec) 
Heartbeat CPU 0 instructions: 1070000001 cycles: 1628636176 heartbeat IPC: 0.689713 cumulative IPC: 0.61747 (Simulation time: 0 hr 52 min 10 sec) 
Heartbeat CPU 0 instructions: 1080000001 cycles: 1643047436 heartbeat IPC: 0.693902 cumulative IPC: 0.618165 (Simulation time: 0 hr 52 min 39 sec) 
Heartbeat CPU 0 instructions: 1090000000 cycles: 1657531730 heartbeat IPC: 0.690403 cumulative IPC: 0.618819 (Simulation time: 0 hr 53 min 9 sec) 
Heartbeat CPU 0 instructions: 1100000000 cycles: 1671976306 heartbeat IPC: 0.692301 cumulative IPC: 0.619476 (Simulation time: 0 hr 53 min 38 sec) 
Finished CPU 0 instructions: 1000000000 cycles: 1614266183 cumulative IPC: 0.619476 (Simulation time: 0 hr 53 min 38 sec) 

ChampSim completed all CPUs

Region of Interest Statistics

CPU 0 cumulative IPC: 0.619476 instructions: 1000000000 cycles: 1614266183
L1D TOTAL     ACCESS:  450490738  HIT:  430125802  MISS:   20364936
L1D LOAD      ACCESS:  380487951  HIT:  360605798  MISS:   19882153
L1D RFO       ACCESS:   70002787  HIT:   69520004  MISS:     482783
L1D PREFETCH  ACCESS:          0  HIT:          0  MISS:          0
L1D WRITEBACK ACCESS:          0  HIT:          0  MISS:          0
L1D PREFETCH  REQUESTED:          0  ISSUED:          0  USEFUL:          0  USELESS:          0
L1D AVERAGE MISS LATENCY: 297.268 cycles
L1I TOTAL     ACCESS:  152465472  HIT:  152465384  MISS:         88
L1I LOAD      ACCESS:  152465472  HIT:  152465384  MISS:         88
L1I RFO       ACCESS:          0  HIT:          0  MISS:          0
L1I PREFETCH  ACCESS:          0  HIT:          0  MISS:          0
L1I WRITEBACK ACCESS:          0  HIT:          0  MISS:          0
L1I PREFETCH  REQUESTED:          0  ISSUED:          0  USEFUL:          0  USELESS:          0
L1I AVERAGE MISS LATENCY: 226.523 cycles
L2C TOTAL     ACCESS:   21626760  HIT:    2968569  MISS:   18658191
L2C LOAD      ACCESS:   19875239  HIT:    1633511  MISS:   18241728
L2C RFO       ACCESS:     482152  HIT:      73333  MISS:     408819
L2C PREFETCH  ACCESS:          0  HIT:          0  MISS:          0
L2C WRITEBACK ACCESS:    1269369  HIT:    1261725  MISS:       7644
L2C PREFETCH  REQUESTED:          0  ISSUED:          0  USEFUL:          0  USELESS:          0
L2C AVERAGE MISS LATENCY: 310.324 cycles
LLC TOTAL     ACCESS:   19743265  HIT:      67376  MISS:   19675889
LLC LOAD      ACCESS:   18241727  HIT:      34435  MISS:   18207292
LLC RFO       ACCESS:     408819  HIT:        823  MISS:     407996
LLC PREFETCH  ACCESS:          0  HIT:          0  MISS:          0
LLC WRITEBACK ACCESS:    1092719  HIT:      32118  MISS:    1060601
LLC PREFETCH  REQUESTED:          0  ISSUED:          0  USEFUL:          0  USELESS:          0
LLC AVERAGE MISS LATENCY: 255.473 cycles
Major fault: 0 Minor fault: 108280
==============================
Perceptron RRIP Stats:
   Num Updates:          673245
   Num Primary Trains:   523
   Num Secondary Trains: 586
==============================
primary_perceptron #0: -3 3 1 3 5 -3 -3 3 3 -1 -3 3 3 1 3 -33 
secondary_perceptron #0: -2 4 2 0 4 -4 -4 4 2 -4 -2 2 8 0 4 0 2 -2 0 2 -42 


DRAM Statistics
 CHANNEL 0
 RQ ROW_BUFFER_HIT:   12386722  ROW_BUFFER_MISS:    6228565
 DBUS_CONGESTED:    1168368
 WQ ROW_BUFFER_HIT:     715863  ROW_BUFFER_MISS:     371196  FULL:          0

 AVG_CONGESTED_CYCLE: 5

CPU 0 Branch Prediction Accuracy: 85.1428% MPKI: 5.85696 Average ROB Occupancy at Mispredict: 131.037

Branch types
NOT_BRANCH: 960578062 96.0578%
BRANCH_DIRECT_JUMP: 5163018 0.516302%
BRANCH_INDIRECT: 0 0%
BRANCH_CONDITIONAL: 34258555 3.42586%
BRANCH_DIRECT_CALL: 2 2e-07%
BRANCH_INDIRECT_CALL: 0 0%
BRANCH_RETURN: 2 2e-07%
BRANCH_OTHER: 0 0%

