
*** ChampSim Multicore Out-of-Order Simulator ***

Warmup Instructions: 100000000
Simulation Instructions: 1000000000
Number of CPUs: 1
LLC sets: 2048
LLC ways: 16
Off-chip DRAM Size: 4096 MB Channels: 1 Width: 64-bit Data Rate: 3200 MT/s

CPU 0 runs /scratch/user/kevin.weston/dpc3-traces/410.champsimtrace.xz
CPU 0 Bimodal branch predictor
Initialize SHIP state
Assign rand_sets[0]: 454  LLC: 2048
rand_sets[0]: 454
Assign rand_sets[1]: 1662  LLC: 2048
rand_sets[1]: 1662
Assign rand_sets[2]: 1921  LLC: 2048
rand_sets[2]: 1921
Assign rand_sets[3]: 1131  LLC: 2048
rand_sets[3]: 1131
Assign rand_sets[4]: 331  LLC: 2048
rand_sets[4]: 331
Assign rand_sets[5]: 1531  LLC: 2048
rand_sets[5]: 1531
Assign rand_sets[6]: 482  LLC: 2048
rand_sets[6]: 482
Assign rand_sets[7]: 1275  LLC: 2048
rand_sets[7]: 1275
Assign rand_sets[8]: 1876  LLC: 2048
rand_sets[8]: 1876
Assign rand_sets[9]: 2038  LLC: 2048
rand_sets[9]: 2038
Assign rand_sets[10]: 701  LLC: 2048
rand_sets[10]: 701
Assign rand_sets[11]: 479  LLC: 2048
rand_sets[11]: 479
Assign rand_sets[12]: 892  LLC: 2048
rand_sets[12]: 892
Assign rand_sets[13]: 1820  LLC: 2048
rand_sets[13]: 1820
Assign rand_sets[14]: 1505  LLC: 2048
rand_sets[14]: 1505
Assign rand_sets[15]: 1159  LLC: 2048
rand_sets[15]: 1159
Assign rand_sets[16]: 513  LLC: 2048
rand_sets[16]: 513
Assign rand_sets[17]: 703  LLC: 2048
rand_sets[17]: 703
Assign rand_sets[18]: 561  LLC: 2048
rand_sets[18]: 561
Assign rand_sets[19]: 990  LLC: 2048
rand_sets[19]: 990
Assign rand_sets[20]: 342  LLC: 2048
rand_sets[20]: 342
Assign rand_sets[21]: 882  LLC: 2048
rand_sets[21]: 882
Assign rand_sets[22]: 15  LLC: 2048
rand_sets[22]: 15
Assign rand_sets[23]: 71  LLC: 2048
rand_sets[23]: 71
Assign rand_sets[24]: 1127  LLC: 2048
rand_sets[24]: 1127
Assign rand_sets[25]: 1382  LLC: 2048
rand_sets[25]: 1382
Assign rand_sets[26]: 647  LLC: 2048
rand_sets[26]: 647
Assign rand_sets[27]: 857  LLC: 2048
rand_sets[27]: 857
Assign rand_sets[28]: 1450  LLC: 2048
rand_sets[28]: 1450
Assign rand_sets[29]: 1160  LLC: 2048
rand_sets[29]: 1160
Assign rand_sets[30]: 1852  LLC: 2048
rand_sets[30]: 1852
Assign rand_sets[31]: 1881  LLC: 2048
rand_sets[31]: 1881
Assign rand_sets[32]: 1770  LLC: 2048
rand_sets[32]: 1770
Assign rand_sets[33]: 1622  LLC: 2048
rand_sets[33]: 1622
Assign rand_sets[34]: 275  LLC: 2048
rand_sets[34]: 275
Assign rand_sets[35]: 635  LLC: 2048
rand_sets[35]: 635
Assign rand_sets[36]: 466  LLC: 2048
rand_sets[36]: 466
Assign rand_sets[37]: 1413  LLC: 2048
rand_sets[37]: 1413
Assign rand_sets[38]: 417  LLC: 2048
rand_sets[38]: 417
Assign rand_sets[39]: 472  LLC: 2048
rand_sets[39]: 472
Assign rand_sets[40]: 1340  LLC: 2048
rand_sets[40]: 1340
Assign rand_sets[41]: 852  LLC: 2048
rand_sets[41]: 852
Assign rand_sets[42]: 1365  LLC: 2048
rand_sets[42]: 1365
Assign rand_sets[43]: 47  LLC: 2048
rand_sets[43]: 47
Assign rand_sets[44]: 823  LLC: 2048
rand_sets[44]: 823
Assign rand_sets[45]: 686  LLC: 2048
rand_sets[45]: 686
Assign rand_sets[46]: 1637  LLC: 2048
rand_sets[46]: 1637
Assign rand_sets[47]: 1115  LLC: 2048
rand_sets[47]: 1115
Assign rand_sets[48]: 986  LLC: 2048
rand_sets[48]: 986
Assign rand_sets[49]: 258  LLC: 2048
rand_sets[49]: 258
Assign rand_sets[50]: 633  LLC: 2048
rand_sets[50]: 633
Assign rand_sets[51]: 920  LLC: 2048
rand_sets[51]: 920
Assign rand_sets[52]: 204  LLC: 2048
rand_sets[52]: 204
Assign rand_sets[53]: 227  LLC: 2048
rand_sets[53]: 227
Assign rand_sets[54]: 1818  LLC: 2048
rand_sets[54]: 1818
Assign rand_sets[55]: 886  LLC: 2048
rand_sets[55]: 886
Assign rand_sets[56]: 1422  LLC: 2048
rand_sets[56]: 1422
Assign rand_sets[57]: 607  LLC: 2048
rand_sets[57]: 607
Assign rand_sets[58]: 217  LLC: 2048
rand_sets[58]: 217
Assign rand_sets[59]: 1945  LLC: 2048
rand_sets[59]: 1945
Assign rand_sets[60]: 143  LLC: 2048
rand_sets[60]: 143
Assign rand_sets[61]: 1311  LLC: 2048
rand_sets[61]: 1311
Assign rand_sets[62]: 319  LLC: 2048
rand_sets[62]: 319
Assign rand_sets[63]: 1846  LLC: 2048
rand_sets[63]: 1846
Assign rand_sets[64]: 238  LLC: 2048
rand_sets[64]: 238
Assign rand_sets[65]: 67  LLC: 2048
rand_sets[65]: 67
Assign rand_sets[66]: 1912  LLC: 2048
rand_sets[66]: 1912
Assign rand_sets[67]: 1613  LLC: 2048
rand_sets[67]: 1613
Assign rand_sets[68]: 1293  LLC: 2048
rand_sets[68]: 1293
Assign rand_sets[69]: 1018  LLC: 2048
rand_sets[69]: 1018
Assign rand_sets[70]: 1982  LLC: 2048
rand_sets[70]: 1982
Assign rand_sets[71]: 1702  LLC: 2048
rand_sets[71]: 1702
Assign rand_sets[72]: 1498  LLC: 2048
rand_sets[72]: 1498
Assign rand_sets[73]: 228  LLC: 2048
rand_sets[73]: 228
Assign rand_sets[74]: 1414  LLC: 2048
rand_sets[74]: 1414
Assign rand_sets[75]: 1166  LLC: 2048
rand_sets[75]: 1166
Assign rand_sets[76]: 732  LLC: 2048
rand_sets[76]: 732
Assign rand_sets[77]: 297  LLC: 2048
rand_sets[77]: 297
Assign rand_sets[78]: 1133  LLC: 2048
rand_sets[78]: 1133
Assign rand_sets[79]: 846  LLC: 2048
rand_sets[79]: 846
Assign rand_sets[80]: 767  LLC: 2048
rand_sets[80]: 767
Assign rand_sets[81]: 1878  LLC: 2048
rand_sets[81]: 1878
Assign rand_sets[82]: 993  LLC: 2048
rand_sets[82]: 993
Assign rand_sets[83]: 1392  LLC: 2048
rand_sets[83]: 1392
Assign rand_sets[84]: 1568  LLC: 2048
rand_sets[84]: 1568
Assign rand_sets[85]: 1787  LLC: 2048
rand_sets[85]: 1787
Assign rand_sets[86]: 399  LLC: 2048
rand_sets[86]: 399
Assign rand_sets[87]: 1201  LLC: 2048
rand_sets[87]: 1201
Assign rand_sets[88]: 856  LLC: 2048
rand_sets[88]: 856
Assign rand_sets[89]: 773  LLC: 2048
rand_sets[89]: 773
Assign rand_sets[90]: 1680  LLC: 2048
rand_sets[90]: 1680
Assign rand_sets[91]: 1477  LLC: 2048
rand_sets[91]: 1477
Assign rand_sets[92]: 9  LLC: 2048
rand_sets[92]: 9
Assign rand_sets[93]: 1500  LLC: 2048
rand_sets[93]: 1500
Assign rand_sets[94]: 851  LLC: 2048
rand_sets[94]: 851
Assign rand_sets[95]: 973  LLC: 2048
rand_sets[95]: 973
Assign rand_sets[96]: 938  LLC: 2048
rand_sets[96]: 938
Assign rand_sets[97]: 1851  LLC: 2048
rand_sets[97]: 1851
Assign rand_sets[98]: 1608  LLC: 2048
rand_sets[98]: 1608
Assign rand_sets[99]: 1945  LLC: 2048
Assign rand_sets[99]: 1106  LLC: 2048
rand_sets[99]: 1106
Assign rand_sets[100]: 979  LLC: 2048
rand_sets[100]: 979
Assign rand_sets[101]: 338  LLC: 2048
rand_sets[101]: 338
Assign rand_sets[102]: 1693  LLC: 2048
rand_sets[102]: 1693
Assign rand_sets[103]: 6  LLC: 2048
rand_sets[103]: 6
Assign rand_sets[104]: 671  LLC: 2048
rand_sets[104]: 671
Assign rand_sets[105]: 490  LLC: 2048
rand_sets[105]: 490
Assign rand_sets[106]: 1461  LLC: 2048
rand_sets[106]: 1461
Assign rand_sets[107]: 1730  LLC: 2048
rand_sets[107]: 1730
Assign rand_sets[108]: 1030  LLC: 2048
rand_sets[108]: 1030
Assign rand_sets[109]: 19  LLC: 2048
rand_sets[109]: 19
Assign rand_sets[110]: 920  LLC: 2048
Assign rand_sets[110]: 329  LLC: 2048
rand_sets[110]: 329
Assign rand_sets[111]: 1714  LLC: 2048
rand_sets[111]: 1714
Assign rand_sets[112]: 1  LLC: 2048
rand_sets[112]: 1
Assign rand_sets[113]: 1822  LLC: 2048
rand_sets[113]: 1822
Assign rand_sets[114]: 172  LLC: 2048
rand_sets[114]: 172
Assign rand_sets[115]: 1586  LLC: 2048
rand_sets[115]: 1586
Assign rand_sets[116]: 648  LLC: 2048
rand_sets[116]: 648
Assign rand_sets[117]: 1329  LLC: 2048
rand_sets[117]: 1329
Assign rand_sets[118]: 668  LLC: 2048
rand_sets[118]: 668
Assign rand_sets[119]: 1874  LLC: 2048
rand_sets[119]: 1874
Assign rand_sets[120]: 70  LLC: 2048
rand_sets[120]: 70
Assign rand_sets[121]: 661  LLC: 2048
rand_sets[121]: 661
Assign rand_sets[122]: 1649  LLC: 2048
rand_sets[122]: 1649
Assign rand_sets[123]: 1590  LLC: 2048
rand_sets[123]: 1590
Assign rand_sets[124]: 911  LLC: 2048
rand_sets[124]: 911
Assign rand_sets[125]: 1367  LLC: 2048
rand_sets[125]: 1367
Assign rand_sets[126]: 1782  LLC: 2048
rand_sets[126]: 1782
Assign rand_sets[127]: 569  LLC: 2048
rand_sets[127]: 569
Heartbeat CPU 0 instructions: 10000002 cycles: 5771037 heartbeat IPC: 1.73279 cumulative IPC: 1.73279 (Simulation time: 0 hr 0 min 30 sec) 
Heartbeat CPU 0 instructions: 20000000 cycles: 11542218 heartbeat IPC: 1.73275 cumulative IPC: 1.73277 (Simulation time: 0 hr 1 min 0 sec) 
Heartbeat CPU 0 instructions: 30000000 cycles: 17313568 heartbeat IPC: 1.7327 cumulative IPC: 1.73275 (Simulation time: 0 hr 1 min 30 sec) 
Heartbeat CPU 0 instructions: 40000000 cycles: 23084788 heartbeat IPC: 1.73274 cumulative IPC: 1.73274 (Simulation time: 0 hr 1 min 59 sec) 
Heartbeat CPU 0 instructions: 50000000 cycles: 28856088 heartbeat IPC: 1.73271 cumulative IPC: 1.73274 (Simulation time: 0 hr 2 min 29 sec) 
Heartbeat CPU 0 instructions: 60000003 cycles: 34627090 heartbeat IPC: 1.7328 cumulative IPC: 1.73275 (Simulation time: 0 hr 2 min 58 sec) 
Heartbeat CPU 0 instructions: 70000000 cycles: 40397976 heartbeat IPC: 1.73284 cumulative IPC: 1.73276 (Simulation time: 0 hr 3 min 28 sec) 
Heartbeat CPU 0 instructions: 80000001 cycles: 46168838 heartbeat IPC: 1.73284 cumulative IPC: 1.73277 (Simulation time: 0 hr 3 min 57 sec) 
Heartbeat CPU 0 instructions: 90000003 cycles: 51939650 heartbeat IPC: 1.73286 cumulative IPC: 1.73278 (Simulation time: 0 hr 4 min 27 sec) 
Heartbeat CPU 0 instructions: 100000002 cycles: 57710430 heartbeat IPC: 1.73287 cumulative IPC: 1.73279 (Simulation time: 0 hr 4 min 56 sec) 

Warmup complete CPU 0 instructions: 100000002 cycles: 57710430 (Simulation time: 0 hr 4 min 56 sec) 

Heartbeat CPU 0 instructions: 110000000 cycles: 72192382 heartbeat IPC: 0.690515 cumulative IPC: 0.690515 (Simulation time: 0 hr 5 min 25 sec) 
Heartbeat CPU 0 instructions: 120000001 cycles: 86624539 heartbeat IPC: 0.692897 cumulative IPC: 0.691704 (Simulation time: 0 hr 5 min 54 sec) 
Heartbeat CPU 0 instructions: 130000000 cycles: 101068007 heartbeat IPC: 0.692354 cumulative IPC: 0.691921 (Simulation time: 0 hr 6 min 23 sec) 
Heartbeat CPU 0 instructions: 140000000 cycles: 115538164 heartbeat IPC: 0.691078 cumulative IPC: 0.69171 (Simulation time: 0 hr 6 min 51 sec) 
Heartbeat CPU 0 instructions: 150000000 cycles: 129991876 heartbeat IPC: 0.691864 cumulative IPC: 0.69174 (Simulation time: 0 hr 7 min 20 sec) 
Heartbeat CPU 0 instructions: 160000003 cycles: 144391098 heartbeat IPC: 0.694482 cumulative IPC: 0.692196 (Simulation time: 0 hr 7 min 49 sec) 
Heartbeat CPU 0 instructions: 170000001 cycles: 158839545 heartbeat IPC: 0.692116 cumulative IPC: 0.692184 (Simulation time: 0 hr 8 min 18 sec) 
Heartbeat CPU 0 instructions: 180000002 cycles: 173256358 heartbeat IPC: 0.693635 cumulative IPC: 0.692365 (Simulation time: 0 hr 8 min 48 sec) 
Heartbeat CPU 0 instructions: 190000000 cycles: 187703455 heartbeat IPC: 0.69218 cumulative IPC: 0.692345 (Simulation time: 0 hr 9 min 17 sec) 
Heartbeat CPU 0 instructions: 200000003 cycles: 202173848 heartbeat IPC: 0.691066 cumulative IPC: 0.692217 (Simulation time: 0 hr 9 min 46 sec) 
Heartbeat CPU 0 instructions: 210000003 cycles: 216622174 heartbeat IPC: 0.692122 cumulative IPC: 0.692208 (Simulation time: 0 hr 10 min 15 sec) 
Heartbeat CPU 0 instructions: 220000000 cycles: 231012918 heartbeat IPC: 0.694891 cumulative IPC: 0.692431 (Simulation time: 0 hr 10 min 44 sec) 
Heartbeat CPU 0 instructions: 230000000 cycles: 245453978 heartbeat IPC: 0.69247 cumulative IPC: 0.692434 (Simulation time: 0 hr 11 min 13 sec) 
Heartbeat CPU 0 instructions: 240000002 cycles: 259900203 heartbeat IPC: 0.692222 cumulative IPC: 0.692419 (Simulation time: 0 hr 11 min 42 sec) 
Heartbeat CPU 0 instructions: 250000000 cycles: 274321979 heartbeat IPC: 0.693396 cumulative IPC: 0.692484 (Simulation time: 0 hr 12 min 11 sec) 
Heartbeat CPU 0 instructions: 260000003 cycles: 288784544 heartbeat IPC: 0.69144 cumulative IPC: 0.692419 (Simulation time: 0 hr 12 min 40 sec) 
Heartbeat CPU 0 instructions: 270000001 cycles: 303229142 heartbeat IPC: 0.6923 cumulative IPC: 0.692412 (Simulation time: 0 hr 13 min 8 sec) 
Heartbeat CPU 0 instructions: 280000002 cycles: 317630567 heartbeat IPC: 0.694376 cumulative IPC: 0.69252 (Simulation time: 0 hr 13 min 37 sec) 
Heartbeat CPU 0 instructions: 290000001 cycles: 332034034 heartbeat IPC: 0.694277 cumulative IPC: 0.692613 (Simulation time: 0 hr 14 min 6 sec) 
Heartbeat CPU 0 instructions: 300000001 cycles: 346472244 heartbeat IPC: 0.692607 cumulative IPC: 0.692612 (Simulation time: 0 hr 14 min 35 sec) 
Heartbeat CPU 0 instructions: 310000001 cycles: 360887697 heartbeat IPC: 0.6937 cumulative IPC: 0.692664 (Simulation time: 0 hr 15 min 4 sec) 
Heartbeat CPU 0 instructions: 320000001 cycles: 375354966 heartbeat IPC: 0.691215 cumulative IPC: 0.692598 (Simulation time: 0 hr 15 min 33 sec) 
Heartbeat CPU 0 instructions: 330000000 cycles: 389793117 heartbeat IPC: 0.692609 cumulative IPC: 0.692599 (Simulation time: 0 hr 16 min 3 sec) 
Heartbeat CPU 0 instructions: 340000000 cycles: 404276011 heartbeat IPC: 0.69047 cumulative IPC: 0.69251 (Simulation time: 0 hr 16 min 32 sec) 
Heartbeat CPU 0 instructions: 350000001 cycles: 428329499 heartbeat IPC: 0.41574 cumulative IPC: 0.674547 (Simulation time: 0 hr 17 min 2 sec) 
Heartbeat CPU 0 instructions: 360000002 cycles: 456373959 heartbeat IPC: 0.356577 cumulative IPC: 0.652179 (Simulation time: 0 hr 17 min 30 sec) 
Heartbeat CPU 0 instructions: 370000003 cycles: 479337806 heartbeat IPC: 0.435467 cumulative IPC: 0.640376 (Simulation time: 0 hr 17 min 58 sec) 
Heartbeat CPU 0 instructions: 380000001 cycles: 498859137 heartbeat IPC: 0.51226 cumulative IPC: 0.634707 (Simulation time: 0 hr 18 min 26 sec) 
Heartbeat CPU 0 instructions: 390000000 cycles: 513380662 heartbeat IPC: 0.688633 cumulative IPC: 0.636425 (Simulation time: 0 hr 18 min 55 sec) 
Heartbeat CPU 0 instructions: 400000002 cycles: 527998991 heartbeat IPC: 0.684073 cumulative IPC: 0.637906 (Simulation time: 0 hr 19 min 24 sec) 
Heartbeat CPU 0 instructions: 410000003 cycles: 542629966 heartbeat IPC: 0.683482 cumulative IPC: 0.639281 (Simulation time: 0 hr 19 min 53 sec) 
Heartbeat CPU 0 instructions: 420000002 cycles: 557230740 heartbeat IPC: 0.684895 cumulative IPC: 0.640615 (Simulation time: 0 hr 20 min 23 sec) 
Heartbeat CPU 0 instructions: 430000001 cycles: 571814152 heartbeat IPC: 0.68571 cumulative IPC: 0.641894 (Simulation time: 0 hr 20 min 52 sec) 
Heartbeat CPU 0 instructions: 440000000 cycles: 586498717 heartbeat IPC: 0.680987 cumulative IPC: 0.642979 (Simulation time: 0 hr 21 min 22 sec) 
Heartbeat CPU 0 instructions: 450000002 cycles: 601087645 heartbeat IPC: 0.685451 cumulative IPC: 0.64412 (Simulation time: 0 hr 21 min 51 sec) 
Heartbeat CPU 0 instructions: 460000000 cycles: 615714843 heartbeat IPC: 0.683658 cumulative IPC: 0.645156 (Simulation time: 0 hr 22 min 20 sec) 
Heartbeat CPU 0 instructions: 470000002 cycles: 630290446 heartbeat IPC: 0.686078 cumulative IPC: 0.646198 (Simulation time: 0 hr 22 min 49 sec) 
Heartbeat CPU 0 instructions: 480000000 cycles: 644941011 heartbeat IPC: 0.682567 cumulative IPC: 0.647105 (Simulation time: 0 hr 23 min 19 sec) 
Heartbeat CPU 0 instructions: 490000003 cycles: 659532866 heartbeat IPC: 0.685314 cumulative IPC: 0.648032 (Simulation time: 0 hr 23 min 48 sec) 
Heartbeat CPU 0 instructions: 500000003 cycles: 674186791 heartbeat IPC: 0.682411 cumulative IPC: 0.648849 (Simulation time: 0 hr 24 min 17 sec) 
Heartbeat CPU 0 instructions: 510000000 cycles: 688782839 heartbeat IPC: 0.685117 cumulative IPC: 0.649688 (Simulation time: 0 hr 24 min 46 sec) 
Heartbeat CPU 0 instructions: 520000002 cycles: 703379358 heartbeat IPC: 0.685095 cumulative IPC: 0.650488 (Simulation time: 0 hr 25 min 15 sec) 
Heartbeat CPU 0 instructions: 530000000 cycles: 718002786 heartbeat IPC: 0.683834 cumulative IPC: 0.651227 (Simulation time: 0 hr 25 min 44 sec) 
Heartbeat CPU 0 instructions: 540000001 cycles: 732639606 heartbeat IPC: 0.683209 cumulative IPC: 0.65192 (Simulation time: 0 hr 26 min 14 sec) 
Heartbeat CPU 0 instructions: 550000000 cycles: 747229675 heartbeat IPC: 0.685398 cumulative IPC: 0.652629 (Simulation time: 0 hr 26 min 43 sec) 
Heartbeat CPU 0 instructions: 560000002 cycles: 761825835 heartbeat IPC: 0.685112 cumulative IPC: 0.653302 (Simulation time: 0 hr 27 min 12 sec) 
Heartbeat CPU 0 instructions: 570000002 cycles: 776414192 heartbeat IPC: 0.685478 cumulative IPC: 0.653955 (Simulation time: 0 hr 27 min 41 sec) 
Heartbeat CPU 0 instructions: 580000000 cycles: 791013529 heartbeat IPC: 0.684962 cumulative IPC: 0.654572 (Simulation time: 0 hr 28 min 11 sec) 
Heartbeat CPU 0 instructions: 590000002 cycles: 805618229 heartbeat IPC: 0.684711 cumulative IPC: 0.655161 (Simulation time: 0 hr 28 min 41 sec) 
Heartbeat CPU 0 instructions: 600000000 cycles: 820265862 heartbeat IPC: 0.682704 cumulative IPC: 0.65569 (Simulation time: 0 hr 29 min 11 sec) 
Heartbeat CPU 0 instructions: 610000001 cycles: 834854993 heartbeat IPC: 0.685442 cumulative IPC: 0.656249 (Simulation time: 0 hr 29 min 40 sec) 
Heartbeat CPU 0 instructions: 620000000 cycles: 849458185 heartbeat IPC: 0.684782 cumulative IPC: 0.656775 (Simulation time: 0 hr 30 min 9 sec) 
Heartbeat CPU 0 instructions: 630000003 cycles: 864063668 heartbeat IPC: 0.684675 cumulative IPC: 0.65728 (Simulation time: 0 hr 30 min 39 sec) 
Heartbeat CPU 0 instructions: 640000000 cycles: 878583147 heartbeat IPC: 0.68873 cumulative IPC: 0.657836 (Simulation time: 0 hr 31 min 8 sec) 
Heartbeat CPU 0 instructions: 650000001 cycles: 893156668 heartbeat IPC: 0.686176 cumulative IPC: 0.658331 (Simulation time: 0 hr 31 min 37 sec) 
Heartbeat CPU 0 instructions: 660000000 cycles: 907667457 heartbeat IPC: 0.689142 cumulative IPC: 0.658857 (Simulation time: 0 hr 32 min 7 sec) 
Heartbeat CPU 0 instructions: 670000002 cycles: 922285781 heartbeat IPC: 0.684073 cumulative IPC: 0.659283 (Simulation time: 0 hr 32 min 36 sec) 
Heartbeat CPU 0 instructions: 680000001 cycles: 936842611 heartbeat IPC: 0.686963 cumulative IPC: 0.659742 (Simulation time: 0 hr 33 min 6 sec) 
Heartbeat CPU 0 instructions: 690000000 cycles: 951437637 heartbeat IPC: 0.685165 cumulative IPC: 0.660157 (Simulation time: 0 hr 33 min 35 sec) 
Heartbeat CPU 0 instructions: 700000000 cycles: 966029767 heartbeat IPC: 0.685301 cumulative IPC: 0.660561 (Simulation time: 0 hr 34 min 5 sec) 
Heartbeat CPU 0 instructions: 710000000 cycles: 980687179 heartbeat IPC: 0.682249 cumulative IPC: 0.660905 (Simulation time: 0 hr 34 min 34 sec) 
Heartbeat CPU 0 instructions: 720000002 cycles: 995276446 heartbeat IPC: 0.685436 cumulative IPC: 0.661287 (Simulation time: 0 hr 35 min 3 sec) 
Heartbeat CPU 0 instructions: 730000000 cycles: 1009889027 heartbeat IPC: 0.684342 cumulative IPC: 0.661641 (Simulation time: 0 hr 35 min 33 sec) 
Heartbeat CPU 0 instructions: 740000002 cycles: 1030355780 heartbeat IPC: 0.488597 cumulative IPC: 0.657999 (Simulation time: 0 hr 36 min 2 sec) 
Heartbeat CPU 0 instructions: 750000000 cycles: 1057313993 heartbeat IPC: 0.370944 cumulative IPC: 0.650258 (Simulation time: 0 hr 36 min 29 sec) 
Heartbeat CPU 0 instructions: 760000000 cycles: 1085233499 heartbeat IPC: 0.358173 cumulative IPC: 0.642321 (Simulation time: 0 hr 37 min 0 sec) 
Heartbeat CPU 0 instructions: 770000000 cycles: 1115379397 heartbeat IPC: 0.33172 cumulative IPC: 0.633469 (Simulation time: 0 hr 37 min 35 sec) 
Heartbeat CPU 0 instructions: 780000000 cycles: 1145525889 heartbeat IPC: 0.331714 cumulative IPC: 0.625106 (Simulation time: 0 hr 38 min 10 sec) 
Heartbeat CPU 0 instructions: 790000003 cycles: 1169330651 heartbeat IPC: 0.420084 cumulative IPC: 0.620716 (Simulation time: 0 hr 38 min 38 sec) 
Heartbeat CPU 0 instructions: 800000001 cycles: 1186954158 heartbeat IPC: 0.567424 cumulative IPC: 0.619884 (Simulation time: 0 hr 39 min 0 sec) 
Heartbeat CPU 0 instructions: 810000001 cycles: 1218785458 heartbeat IPC: 0.314156 cumulative IPC: 0.611502 (Simulation time: 0 hr 39 min 30 sec) 
Heartbeat CPU 0 instructions: 820000001 cycles: 1247163221 heartbeat IPC: 0.352389 cumulative IPC: 0.60532 (Simulation time: 0 hr 40 min 1 sec) 
Heartbeat CPU 0 instructions: 830000001 cycles: 1275579173 heartbeat IPC: 0.351915 cumulative IPC: 0.599408 (Simulation time: 0 hr 40 min 32 sec) 
Heartbeat CPU 0 instructions: 840000003 cycles: 1296280612 heartbeat IPC: 0.483058 cumulative IPC: 0.597463 (Simulation time: 0 hr 41 min 2 sec) 
Heartbeat CPU 0 instructions: 850000001 cycles: 1310745212 heartbeat IPC: 0.691343 cumulative IPC: 0.598547 (Simulation time: 0 hr 41 min 31 sec) 
Heartbeat CPU 0 instructions: 860000003 cycles: 1325097669 heartbeat IPC: 0.696745 cumulative IPC: 0.599659 (Simulation time: 0 hr 42 min 0 sec) 
Heartbeat CPU 0 instructions: 870000002 cycles: 1339568599 heartbeat IPC: 0.691041 cumulative IPC: 0.60069 (Simulation time: 0 hr 42 min 29 sec) 
Heartbeat CPU 0 instructions: 880000000 cycles: 1353982195 heartbeat IPC: 0.693789 cumulative IPC: 0.601726 (Simulation time: 0 hr 42 min 58 sec) 
Heartbeat CPU 0 instructions: 890000003 cycles: 1368443647 heartbeat IPC: 0.691494 cumulative IPC: 0.602716 (Simulation time: 0 hr 43 min 27 sec) 
Heartbeat CPU 0 instructions: 900000000 cycles: 1382943809 heartbeat IPC: 0.689647 cumulative IPC: 0.603667 (Simulation time: 0 hr 43 min 56 sec) 
Heartbeat CPU 0 instructions: 910000003 cycles: 1397375564 heartbeat IPC: 0.692917 cumulative IPC: 0.604629 (Simulation time: 0 hr 44 min 25 sec) 
Heartbeat CPU 0 instructions: 920000003 cycles: 1411810300 heartbeat IPC: 0.692773 cumulative IPC: 0.605568 (Simulation time: 0 hr 44 min 54 sec) 
Heartbeat CPU 0 instructions: 930000001 cycles: 1426247116 heartbeat IPC: 0.692673 cumulative IPC: 0.606487 (Simulation time: 0 hr 45 min 23 sec) 
Heartbeat CPU 0 instructions: 940000003 cycles: 1440718162 heartbeat IPC: 0.691035 cumulative IPC: 0.607372 (Simulation time: 0 hr 45 min 52 sec) 
Heartbeat CPU 0 instructions: 950000002 cycles: 1455168069 heartbeat IPC: 0.692046 cumulative IPC: 0.608247 (Simulation time: 0 hr 46 min 21 sec) 
Heartbeat CPU 0 instructions: 960000000 cycles: 1469672239 heartbeat IPC: 0.689457 cumulative IPC: 0.609082 (Simulation time: 0 hr 46 min 50 sec) 
Heartbeat CPU 0 instructions: 970000002 cycles: 1484103593 heartbeat IPC: 0.692936 cumulative IPC: 0.60993 (Simulation time: 0 hr 47 min 19 sec) 
Heartbeat CPU 0 instructions: 980000002 cycles: 1498548236 heartbeat IPC: 0.692298 cumulative IPC: 0.610756 (Simulation time: 0 hr 47 min 48 sec) 
Heartbeat CPU 0 instructions: 990000000 cycles: 1513016388 heartbeat IPC: 0.691173 cumulative IPC: 0.611555 (Simulation time: 0 hr 48 min 17 sec) 
Heartbeat CPU 0 instructions: 1000000001 cycles: 1527460286 heartbeat IPC: 0.692334 cumulative IPC: 0.612349 (Simulation time: 0 hr 48 min 46 sec) 
Heartbeat CPU 0 instructions: 1010000001 cycles: 1541863978 heartbeat IPC: 0.694266 cumulative IPC: 0.613144 (Simulation time: 0 hr 49 min 14 sec) 
Heartbeat CPU 0 instructions: 1020000002 cycles: 1556303651 heartbeat IPC: 0.692537 cumulative IPC: 0.613909 (Simulation time: 0 hr 49 min 43 sec) 
Heartbeat CPU 0 instructions: 1030000001 cycles: 1570721195 heartbeat IPC: 0.693599 cumulative IPC: 0.614668 (Simulation time: 0 hr 50 min 12 sec) 
Heartbeat CPU 0 instructions: 1040000001 cycles: 1585172437 heartbeat IPC: 0.691982 cumulative IPC: 0.6154 (Simulation time: 0 hr 50 min 41 sec) 
Heartbeat CPU 0 instructions: 1050000000 cycles: 1599635162 heartbeat IPC: 0.691433 cumulative IPC: 0.616113 (Simulation time: 0 hr 51 min 10 sec) 
Heartbeat CPU 0 instructions: 1060000003 cycles: 1614078678 heartbeat IPC: 0.692352 cumulative IPC: 0.616821 (Simulation time: 0 hr 51 min 39 sec) 
Heartbeat CPU 0 instructions: 1070000001 cycles: 1628481520 heartbeat IPC: 0.694307 cumulative IPC: 0.617531 (Simulation time: 0 hr 52 min 8 sec) 
Heartbeat CPU 0 instructions: 1080000001 cycles: 1642943994 heartbeat IPC: 0.691445 cumulative IPC: 0.618205 (Simulation time: 0 hr 52 min 37 sec) 
Heartbeat CPU 0 instructions: 1090000000 cycles: 1657382125 heartbeat IPC: 0.69261 cumulative IPC: 0.618877 (Simulation time: 0 hr 53 min 6 sec) 
Heartbeat CPU 0 instructions: 1100000000 cycles: 1671810132 heartbeat IPC: 0.693096 cumulative IPC: 0.61954 (Simulation time: 0 hr 53 min 35 sec) 
Finished CPU 0 instructions: 1000000000 cycles: 1614099711 cumulative IPC: 0.61954 (Simulation time: 0 hr 53 min 35 sec) 

ChampSim completed all CPUs

Region of Interest Statistics

CPU 0 cumulative IPC: 0.61954 instructions: 1000000000 cycles: 1614099711
L1D TOTAL     ACCESS:  450489436  HIT:  430125091  MISS:   20364345
L1D LOAD      ACCESS:  380492608  HIT:  360610656  MISS:   19881952
L1D RFO       ACCESS:   69996828  HIT:   69514435  MISS:     482393
L1D PREFETCH  ACCESS:          0  HIT:          0  MISS:          0
L1D WRITEBACK ACCESS:          0  HIT:          0  MISS:          0
L1D PREFETCH  REQUESTED:          0  ISSUED:          0  USEFUL:          0  USELESS:          0
L1D AVERAGE MISS LATENCY: 297.255 cycles
L1I TOTAL     ACCESS:  152465381  HIT:  152465293  MISS:         88
L1I LOAD      ACCESS:  152465381  HIT:  152465293  MISS:         88
L1I RFO       ACCESS:          0  HIT:          0  MISS:          0
L1I PREFETCH  ACCESS:          0  HIT:          0  MISS:          0
L1I WRITEBACK ACCESS:          0  HIT:          0  MISS:          0
L1I PREFETCH  REQUESTED:          0  ISSUED:          0  USEFUL:          0  USELESS:          0
L1I AVERAGE MISS LATENCY: 220.909 cycles
L2C TOTAL     ACCESS:   21625774  HIT:    2967571  MISS:   18658203
L2C LOAD      ACCESS:   19875024  HIT:    1633329  MISS:   18241695
L2C RFO       ACCESS:     481748  HIT:      72929  MISS:     408819
L2C PREFETCH  ACCESS:          0  HIT:          0  MISS:          0
L2C WRITEBACK ACCESS:    1269002  HIT:    1261313  MISS:       7689
L2C PREFETCH  REQUESTED:          0  ISSUED:          0  USEFUL:          0  USELESS:          0
L2C AVERAGE MISS LATENCY: 310.302 cycles
LLC TOTAL     ACCESS:   19743254  HIT:      95220  MISS:   19648034
LLC LOAD      ACCESS:   18241695  HIT:      40495  MISS:   18201200
LLC RFO       ACCESS:     408819  HIT:          1  MISS:     408818
LLC PREFETCH  ACCESS:          0  HIT:          0  MISS:          0
LLC WRITEBACK ACCESS:    1092740  HIT:      54724  MISS:    1038016
LLC PREFETCH  REQUESTED:          0  ISSUED:          0  USEFUL:          0  USELESS:          0
LLC AVERAGE MISS LATENCY: 255.814 cycles
Major fault: 0 Minor fault: 108280

DRAM Statistics
 CHANNEL 0
 RQ ROW_BUFFER_HIT:   12371652  ROW_BUFFER_MISS:    6238366
 DBUS_CONGESTED:    1169474
 WQ ROW_BUFFER_HIT:     708677  ROW_BUFFER_MISS:     374644  FULL:          0

 AVG_CONGESTED_CYCLE: 5

CPU 0 Branch Prediction Accuracy: 85.1428% MPKI: 5.85696 Average ROB Occupancy at Mispredict: 130.978

Branch types
NOT_BRANCH: 960578062 96.0578%
BRANCH_DIRECT_JUMP: 5163018 0.516302%
BRANCH_INDIRECT: 0 0%
BRANCH_CONDITIONAL: 34258555 3.42586%
BRANCH_DIRECT_CALL: 2 2e-07%
BRANCH_INDIRECT_CALL: 0 0%
BRANCH_RETURN: 2 2e-07%
BRANCH_OTHER: 0 0%

