
*** ChampSim Multicore Out-of-Order Simulator ***

Warmup Instructions: 100000000
Simulation Instructions: 1000000000
Number of CPUs: 1
LLC sets: 2048
LLC ways: 16
Off-chip DRAM Size: 4096 MB Channels: 1 Width: 64-bit Data Rate: 3200 MT/s

CPU 0 runs /scratch/user/kevin.weston/dpc3-traces/410.champsimtrace.xz
CPU 0 Bimodal branch predictor
Per-line RRPV Initialized
PRRIP State Initialized
Assign SAMPLER_SET[0]: 454  LLC: 2048
SAMPLER_SET[0]: 454
Assign SAMPLER_SET[1]: 1662  LLC: 2048
SAMPLER_SET[1]: 1662
Assign SAMPLER_SET[2]: 1921  LLC: 2048
SAMPLER_SET[2]: 1921
Assign SAMPLER_SET[3]: 1131  LLC: 2048
SAMPLER_SET[3]: 1131
Assign SAMPLER_SET[4]: 331  LLC: 2048
SAMPLER_SET[4]: 331
Assign SAMPLER_SET[5]: 1531  LLC: 2048
SAMPLER_SET[5]: 1531
Assign SAMPLER_SET[6]: 482  LLC: 2048
SAMPLER_SET[6]: 482
Assign SAMPLER_SET[7]: 1275  LLC: 2048
SAMPLER_SET[7]: 1275
Assign SAMPLER_SET[8]: 1876  LLC: 2048
SAMPLER_SET[8]: 1876
Assign SAMPLER_SET[9]: 2038  LLC: 2048
SAMPLER_SET[9]: 2038
Assign SAMPLER_SET[10]: 701  LLC: 2048
SAMPLER_SET[10]: 701
Assign SAMPLER_SET[11]: 479  LLC: 2048
SAMPLER_SET[11]: 479
Assign SAMPLER_SET[12]: 892  LLC: 2048
SAMPLER_SET[12]: 892
Assign SAMPLER_SET[13]: 1820  LLC: 2048
SAMPLER_SET[13]: 1820
Assign SAMPLER_SET[14]: 1505  LLC: 2048
SAMPLER_SET[14]: 1505
Assign SAMPLER_SET[15]: 1159  LLC: 2048
SAMPLER_SET[15]: 1159
Assign SAMPLER_SET[16]: 513  LLC: 2048
SAMPLER_SET[16]: 513
Assign SAMPLER_SET[17]: 703  LLC: 2048
SAMPLER_SET[17]: 703
Assign SAMPLER_SET[18]: 561  LLC: 2048
SAMPLER_SET[18]: 561
Assign SAMPLER_SET[19]: 990  LLC: 2048
SAMPLER_SET[19]: 990
Assign SAMPLER_SET[20]: 342  LLC: 2048
SAMPLER_SET[20]: 342
Assign SAMPLER_SET[21]: 882  LLC: 2048
SAMPLER_SET[21]: 882
Assign SAMPLER_SET[22]: 15  LLC: 2048
SAMPLER_SET[22]: 15
Assign SAMPLER_SET[23]: 71  LLC: 2048
SAMPLER_SET[23]: 71
Assign SAMPLER_SET[24]: 1127  LLC: 2048
SAMPLER_SET[24]: 1127
Assign SAMPLER_SET[25]: 1382  LLC: 2048
SAMPLER_SET[25]: 1382
Assign SAMPLER_SET[26]: 647  LLC: 2048
SAMPLER_SET[26]: 647
Assign SAMPLER_SET[27]: 857  LLC: 2048
SAMPLER_SET[27]: 857
Assign SAMPLER_SET[28]: 1450  LLC: 2048
SAMPLER_SET[28]: 1450
Assign SAMPLER_SET[29]: 1160  LLC: 2048
SAMPLER_SET[29]: 1160
Assign SAMPLER_SET[30]: 1852  LLC: 2048
SAMPLER_SET[30]: 1852
Assign SAMPLER_SET[31]: 1881  LLC: 2048
SAMPLER_SET[31]: 1881
Assign SAMPLER_SET[32]: 1770  LLC: 2048
SAMPLER_SET[32]: 1770
Assign SAMPLER_SET[33]: 1622  LLC: 2048
SAMPLER_SET[33]: 1622
Assign SAMPLER_SET[34]: 275  LLC: 2048
SAMPLER_SET[34]: 275
Assign SAMPLER_SET[35]: 635  LLC: 2048
SAMPLER_SET[35]: 635
Assign SAMPLER_SET[36]: 466  LLC: 2048
SAMPLER_SET[36]: 466
Assign SAMPLER_SET[37]: 1413  LLC: 2048
SAMPLER_SET[37]: 1413
Assign SAMPLER_SET[38]: 417  LLC: 2048
SAMPLER_SET[38]: 417
Assign SAMPLER_SET[39]: 472  LLC: 2048
SAMPLER_SET[39]: 472
Assign SAMPLER_SET[40]: 1340  LLC: 2048
SAMPLER_SET[40]: 1340
Assign SAMPLER_SET[41]: 852  LLC: 2048
SAMPLER_SET[41]: 852
Assign SAMPLER_SET[42]: 1365  LLC: 2048
SAMPLER_SET[42]: 1365
Assign SAMPLER_SET[43]: 47  LLC: 2048
SAMPLER_SET[43]: 47
Assign SAMPLER_SET[44]: 823  LLC: 2048
SAMPLER_SET[44]: 823
Assign SAMPLER_SET[45]: 686  LLC: 2048
SAMPLER_SET[45]: 686
Assign SAMPLER_SET[46]: 1637  LLC: 2048
SAMPLER_SET[46]: 1637
Assign SAMPLER_SET[47]: 1115  LLC: 2048
SAMPLER_SET[47]: 1115
Assign SAMPLER_SET[48]: 986  LLC: 2048
SAMPLER_SET[48]: 986
Assign SAMPLER_SET[49]: 258  LLC: 2048
SAMPLER_SET[49]: 258
Assign SAMPLER_SET[50]: 633  LLC: 2048
SAMPLER_SET[50]: 633
Assign SAMPLER_SET[51]: 920  LLC: 2048
SAMPLER_SET[51]: 920
Assign SAMPLER_SET[52]: 204  LLC: 2048
SAMPLER_SET[52]: 204
Assign SAMPLER_SET[53]: 227  LLC: 2048
SAMPLER_SET[53]: 227
Assign SAMPLER_SET[54]: 1818  LLC: 2048
SAMPLER_SET[54]: 1818
Assign SAMPLER_SET[55]: 886  LLC: 2048
SAMPLER_SET[55]: 886
Assign SAMPLER_SET[56]: 1422  LLC: 2048
SAMPLER_SET[56]: 1422
Assign SAMPLER_SET[57]: 607  LLC: 2048
SAMPLER_SET[57]: 607
Assign SAMPLER_SET[58]: 217  LLC: 2048
SAMPLER_SET[58]: 217
Assign SAMPLER_SET[59]: 1945  LLC: 2048
SAMPLER_SET[59]: 1945
Assign SAMPLER_SET[60]: 143  LLC: 2048
SAMPLER_SET[60]: 143
Assign SAMPLER_SET[61]: 1311  LLC: 2048
SAMPLER_SET[61]: 1311
Assign SAMPLER_SET[62]: 319  LLC: 2048
SAMPLER_SET[62]: 319
Assign SAMPLER_SET[63]: 1846  LLC: 2048
SAMPLER_SET[63]: 1846
Heartbeat CPU 0 instructions: 10000002 cycles: 5771046 heartbeat IPC: 1.73279 cumulative IPC: 1.73279 (Simulation time: 0 hr 0 min 32 sec) 
Heartbeat CPU 0 instructions: 20000000 cycles: 11542134 heartbeat IPC: 1.73278 cumulative IPC: 1.73278 (Simulation time: 0 hr 1 min 4 sec) 
Heartbeat CPU 0 instructions: 30000000 cycles: 17313415 heartbeat IPC: 1.73272 cumulative IPC: 1.73276 (Simulation time: 0 hr 1 min 36 sec) 
Heartbeat CPU 0 instructions: 40000000 cycles: 23084565 heartbeat IPC: 1.73276 cumulative IPC: 1.73276 (Simulation time: 0 hr 2 min 7 sec) 
Heartbeat CPU 0 instructions: 50000000 cycles: 28855848 heartbeat IPC: 1.73272 cumulative IPC: 1.73275 (Simulation time: 0 hr 2 min 39 sec) 
Heartbeat CPU 0 instructions: 60000003 cycles: 34626795 heartbeat IPC: 1.73282 cumulative IPC: 1.73276 (Simulation time: 0 hr 3 min 11 sec) 
Heartbeat CPU 0 instructions: 70000000 cycles: 40397642 heartbeat IPC: 1.73285 cumulative IPC: 1.73277 (Simulation time: 0 hr 3 min 42 sec) 
Heartbeat CPU 0 instructions: 80000001 cycles: 46168428 heartbeat IPC: 1.73287 cumulative IPC: 1.73279 (Simulation time: 0 hr 4 min 14 sec) 
Heartbeat CPU 0 instructions: 90000003 cycles: 51939153 heartbeat IPC: 1.73288 cumulative IPC: 1.7328 (Simulation time: 0 hr 4 min 46 sec) 
Heartbeat CPU 0 instructions: 100000002 cycles: 57709935 heartbeat IPC: 1.73287 cumulative IPC: 1.7328 (Simulation time: 0 hr 5 min 18 sec) 

Warmup complete CPU 0 instructions: 100000002 cycles: 57709935 (Simulation time: 0 hr 5 min 18 sec) 

Heartbeat CPU 0 instructions: 110000000 cycles: 72119487 heartbeat IPC: 0.693984 cumulative IPC: 0.693984 (Simulation time: 0 hr 5 min 47 sec) 
Heartbeat CPU 0 instructions: 120000001 cycles: 86469822 heartbeat IPC: 0.696848 cumulative IPC: 0.695413 (Simulation time: 0 hr 6 min 17 sec) 
Heartbeat CPU 0 instructions: 130000000 cycles: 100863393 heartbeat IPC: 0.694755 cumulative IPC: 0.695193 (Simulation time: 0 hr 6 min 46 sec) 
Heartbeat CPU 0 instructions: 140000000 cycles: 115277616 heartbeat IPC: 0.693759 cumulative IPC: 0.694834 (Simulation time: 0 hr 7 min 15 sec) 
Heartbeat CPU 0 instructions: 150000000 cycles: 129621750 heartbeat IPC: 0.697149 cumulative IPC: 0.695296 (Simulation time: 0 hr 7 min 44 sec) 
Heartbeat CPU 0 instructions: 160000003 cycles: 144033552 heartbeat IPC: 0.693876 cumulative IPC: 0.695059 (Simulation time: 0 hr 8 min 14 sec) 
Heartbeat CPU 0 instructions: 170000001 cycles: 158393279 heartbeat IPC: 0.696392 cumulative IPC: 0.695249 (Simulation time: 0 hr 8 min 43 sec) 
Heartbeat CPU 0 instructions: 180000002 cycles: 172775879 heartbeat IPC: 0.695285 cumulative IPC: 0.695253 (Simulation time: 0 hr 9 min 12 sec) 
Heartbeat CPU 0 instructions: 190000000 cycles: 187218593 heartbeat IPC: 0.692391 cumulative IPC: 0.694934 (Simulation time: 0 hr 9 min 42 sec) 
Heartbeat CPU 0 instructions: 200000003 cycles: 201611813 heartbeat IPC: 0.694772 cumulative IPC: 0.694918 (Simulation time: 0 hr 10 min 11 sec) 
Heartbeat CPU 0 instructions: 210000003 cycles: 216033766 heartbeat IPC: 0.693387 cumulative IPC: 0.694779 (Simulation time: 0 hr 10 min 40 sec) 
Heartbeat CPU 0 instructions: 220000000 cycles: 230456600 heartbeat IPC: 0.693345 cumulative IPC: 0.694659 (Simulation time: 0 hr 11 min 9 sec) 
Heartbeat CPU 0 instructions: 230000000 cycles: 244863835 heartbeat IPC: 0.694096 cumulative IPC: 0.694615 (Simulation time: 0 hr 11 min 39 sec) 
Heartbeat CPU 0 instructions: 240000002 cycles: 259209245 heartbeat IPC: 0.697087 cumulative IPC: 0.694791 (Simulation time: 0 hr 12 min 8 sec) 
Heartbeat CPU 0 instructions: 250000000 cycles: 273602920 heartbeat IPC: 0.694749 cumulative IPC: 0.694789 (Simulation time: 0 hr 12 min 37 sec) 
Heartbeat CPU 0 instructions: 260000003 cycles: 287982956 heartbeat IPC: 0.695409 cumulative IPC: 0.694827 (Simulation time: 0 hr 13 min 7 sec) 
Heartbeat CPU 0 instructions: 270000001 cycles: 302404249 heartbeat IPC: 0.693419 cumulative IPC: 0.694744 (Simulation time: 0 hr 13 min 37 sec) 
Heartbeat CPU 0 instructions: 280000002 cycles: 316780378 heartbeat IPC: 0.695598 cumulative IPC: 0.694792 (Simulation time: 0 hr 14 min 6 sec) 
Heartbeat CPU 0 instructions: 290000001 cycles: 331130757 heartbeat IPC: 0.696846 cumulative IPC: 0.694899 (Simulation time: 0 hr 14 min 35 sec) 
Heartbeat CPU 0 instructions: 300000001 cycles: 345536926 heartbeat IPC: 0.694147 cumulative IPC: 0.694862 (Simulation time: 0 hr 15 min 5 sec) 
Heartbeat CPU 0 instructions: 310000001 cycles: 359942038 heartbeat IPC: 0.694198 cumulative IPC: 0.69483 (Simulation time: 0 hr 15 min 34 sec) 
Heartbeat CPU 0 instructions: 320000001 cycles: 374329156 heartbeat IPC: 0.695066 cumulative IPC: 0.694841 (Simulation time: 0 hr 16 min 3 sec) 
Heartbeat CPU 0 instructions: 330000000 cycles: 388769535 heartbeat IPC: 0.692503 cumulative IPC: 0.694739 (Simulation time: 0 hr 16 min 32 sec) 
Heartbeat CPU 0 instructions: 340000000 cycles: 403218058 heartbeat IPC: 0.692112 cumulative IPC: 0.694629 (Simulation time: 0 hr 17 min 2 sec) 
Heartbeat CPU 0 instructions: 350000001 cycles: 426602959 heartbeat IPC: 0.427626 cumulative IPC: 0.677703 (Simulation time: 0 hr 17 min 31 sec) 
Heartbeat CPU 0 instructions: 360000002 cycles: 456158528 heartbeat IPC: 0.338346 cumulative IPC: 0.652531 (Simulation time: 0 hr 17 min 59 sec) 
Heartbeat CPU 0 instructions: 370000003 cycles: 479011166 heartbeat IPC: 0.437586 cumulative IPC: 0.640872 (Simulation time: 0 hr 18 min 27 sec) 
Heartbeat CPU 0 instructions: 380000001 cycles: 498588466 heartbeat IPC: 0.510796 cumulative IPC: 0.635096 (Simulation time: 0 hr 18 min 55 sec) 
Heartbeat CPU 0 instructions: 390000000 cycles: 513053607 heartbeat IPC: 0.691317 cumulative IPC: 0.636882 (Simulation time: 0 hr 19 min 25 sec) 
Heartbeat CPU 0 instructions: 400000002 cycles: 527606543 heartbeat IPC: 0.687147 cumulative IPC: 0.638438 (Simulation time: 0 hr 19 min 55 sec) 
Heartbeat CPU 0 instructions: 410000003 cycles: 542229380 heartbeat IPC: 0.683862 cumulative IPC: 0.639809 (Simulation time: 0 hr 20 min 24 sec) 
Heartbeat CPU 0 instructions: 420000002 cycles: 556836595 heartbeat IPC: 0.684593 cumulative IPC: 0.64112 (Simulation time: 0 hr 20 min 54 sec) 
Heartbeat CPU 0 instructions: 430000001 cycles: 571465984 heartbeat IPC: 0.683555 cumulative IPC: 0.642328 (Simulation time: 0 hr 21 min 23 sec) 
Heartbeat CPU 0 instructions: 440000000 cycles: 586106552 heartbeat IPC: 0.683034 cumulative IPC: 0.643456 (Simulation time: 0 hr 21 min 53 sec) 
Heartbeat CPU 0 instructions: 450000002 cycles: 600703878 heartbeat IPC: 0.685057 cumulative IPC: 0.644574 (Simulation time: 0 hr 22 min 23 sec) 
Heartbeat CPU 0 instructions: 460000000 cycles: 615308470 heartbeat IPC: 0.684716 cumulative IPC: 0.645626 (Simulation time: 0 hr 22 min 53 sec) 
Heartbeat CPU 0 instructions: 470000002 cycles: 629910061 heartbeat IPC: 0.684857 cumulative IPC: 0.646627 (Simulation time: 0 hr 23 min 22 sec) 
Heartbeat CPU 0 instructions: 480000000 cycles: 644520399 heartbeat IPC: 0.684447 cumulative IPC: 0.647569 (Simulation time: 0 hr 23 min 51 sec) 
Heartbeat CPU 0 instructions: 490000003 cycles: 659113903 heartbeat IPC: 0.685237 cumulative IPC: 0.648483 (Simulation time: 0 hr 24 min 21 sec) 
Heartbeat CPU 0 instructions: 500000003 cycles: 673736807 heartbeat IPC: 0.683859 cumulative IPC: 0.649322 (Simulation time: 0 hr 24 min 50 sec) 
Heartbeat CPU 0 instructions: 510000000 cycles: 688340232 heartbeat IPC: 0.684771 cumulative IPC: 0.650143 (Simulation time: 0 hr 25 min 19 sec) 
Heartbeat CPU 0 instructions: 520000002 cycles: 702947770 heartbeat IPC: 0.684578 cumulative IPC: 0.650923 (Simulation time: 0 hr 25 min 48 sec) 
Heartbeat CPU 0 instructions: 530000000 cycles: 717579680 heartbeat IPC: 0.683438 cumulative IPC: 0.651644 (Simulation time: 0 hr 26 min 17 sec) 
Heartbeat CPU 0 instructions: 540000001 cycles: 732022292 heartbeat IPC: 0.692396 cumulative IPC: 0.652517 (Simulation time: 0 hr 26 min 47 sec) 
Heartbeat CPU 0 instructions: 550000000 cycles: 746239863 heartbeat IPC: 0.703355 cumulative IPC: 0.653566 (Simulation time: 0 hr 27 min 16 sec) 
Heartbeat CPU 0 instructions: 560000002 cycles: 760364811 heartbeat IPC: 0.707967 cumulative IPC: 0.65466 (Simulation time: 0 hr 27 min 45 sec) 
Heartbeat CPU 0 instructions: 570000002 cycles: 774930309 heartbeat IPC: 0.686554 cumulative IPC: 0.655308 (Simulation time: 0 hr 28 min 14 sec) 
Heartbeat CPU 0 instructions: 580000000 cycles: 789528719 heartbeat IPC: 0.685006 cumulative IPC: 0.6559 (Simulation time: 0 hr 28 min 43 sec) 
Heartbeat CPU 0 instructions: 590000002 cycles: 804130285 heartbeat IPC: 0.684858 cumulative IPC: 0.656467 (Simulation time: 0 hr 29 min 12 sec) 
Heartbeat CPU 0 instructions: 600000000 cycles: 818739100 heartbeat IPC: 0.684518 cumulative IPC: 0.657005 (Simulation time: 0 hr 29 min 42 sec) 
Heartbeat CPU 0 instructions: 610000001 cycles: 833340155 heartbeat IPC: 0.684882 cumulative IPC: 0.65753 (Simulation time: 0 hr 30 min 11 sec) 
Heartbeat CPU 0 instructions: 620000000 cycles: 847950432 heartbeat IPC: 0.68445 cumulative IPC: 0.658028 (Simulation time: 0 hr 30 min 40 sec) 
Heartbeat CPU 0 instructions: 630000003 cycles: 862539226 heartbeat IPC: 0.685458 cumulative IPC: 0.658525 (Simulation time: 0 hr 31 min 9 sec) 
Heartbeat CPU 0 instructions: 640000000 cycles: 877134419 heartbeat IPC: 0.685157 cumulative IPC: 0.658999 (Simulation time: 0 hr 31 min 38 sec) 
Heartbeat CPU 0 instructions: 650000001 cycles: 891727724 heartbeat IPC: 0.685246 cumulative IPC: 0.659458 (Simulation time: 0 hr 32 min 8 sec) 
Heartbeat CPU 0 instructions: 660000000 cycles: 906357101 heartbeat IPC: 0.683556 cumulative IPC: 0.659874 (Simulation time: 0 hr 32 min 37 sec) 
Heartbeat CPU 0 instructions: 670000002 cycles: 920916107 heartbeat IPC: 0.68686 cumulative IPC: 0.660329 (Simulation time: 0 hr 33 min 6 sec) 
Heartbeat CPU 0 instructions: 680000001 cycles: 935502360 heartbeat IPC: 0.685577 cumulative IPC: 0.660748 (Simulation time: 0 hr 33 min 35 sec) 
Heartbeat CPU 0 instructions: 690000000 cycles: 950135347 heartbeat IPC: 0.683387 cumulative IPC: 0.66112 (Simulation time: 0 hr 34 min 5 sec) 
Heartbeat CPU 0 instructions: 700000000 cycles: 964740391 heartbeat IPC: 0.684695 cumulative IPC: 0.661499 (Simulation time: 0 hr 34 min 34 sec) 
Heartbeat CPU 0 instructions: 710000000 cycles: 979296427 heartbeat IPC: 0.687 cumulative IPC: 0.661902 (Simulation time: 0 hr 35 min 3 sec) 
Heartbeat CPU 0 instructions: 720000002 cycles: 993915009 heartbeat IPC: 0.684061 cumulative IPC: 0.662248 (Simulation time: 0 hr 35 min 33 sec) 
Heartbeat CPU 0 instructions: 730000000 cycles: 1008516511 heartbeat IPC: 0.684861 cumulative IPC: 0.662595 (Simulation time: 0 hr 36 min 2 sec) 
Heartbeat CPU 0 instructions: 740000002 cycles: 1029009458 heartbeat IPC: 0.487973 cumulative IPC: 0.658911 (Simulation time: 0 hr 36 min 30 sec) 
Heartbeat CPU 0 instructions: 750000000 cycles: 1054974276 heartbeat IPC: 0.385136 cumulative IPC: 0.651783 (Simulation time: 0 hr 36 min 55 sec) 
Heartbeat CPU 0 instructions: 760000000 cycles: 1083835391 heartbeat IPC: 0.346487 cumulative IPC: 0.643196 (Simulation time: 0 hr 37 min 26 sec) 
Heartbeat CPU 0 instructions: 770000000 cycles: 1113775809 heartbeat IPC: 0.333997 cumulative IPC: 0.63443 (Simulation time: 0 hr 37 min 59 sec) 
Heartbeat CPU 0 instructions: 780000000 cycles: 1143885580 heartbeat IPC: 0.332118 cumulative IPC: 0.62605 (Simulation time: 0 hr 38 min 33 sec) 
Heartbeat CPU 0 instructions: 790000003 cycles: 1165998348 heartbeat IPC: 0.452228 cumulative IPC: 0.622582 (Simulation time: 0 hr 38 min 59 sec) 
Heartbeat CPU 0 instructions: 800000001 cycles: 1183619895 heartbeat IPC: 0.567487 cumulative IPC: 0.621719 (Simulation time: 0 hr 39 min 20 sec) 
Heartbeat CPU 0 instructions: 810000001 cycles: 1214256535 heartbeat IPC: 0.326407 cumulative IPC: 0.613897 (Simulation time: 0 hr 39 min 48 sec) 
Heartbeat CPU 0 instructions: 820000001 cycles: 1243251736 heartbeat IPC: 0.344885 cumulative IPC: 0.607317 (Simulation time: 0 hr 40 min 18 sec) 
Heartbeat CPU 0 instructions: 830000001 cycles: 1270731326 heartbeat IPC: 0.363906 cumulative IPC: 0.601803 (Simulation time: 0 hr 40 min 48 sec) 
Heartbeat CPU 0 instructions: 840000003 cycles: 1291515948 heartbeat IPC: 0.481125 cumulative IPC: 0.59977 (Simulation time: 0 hr 41 min 17 sec) 
Heartbeat CPU 0 instructions: 850000001 cycles: 1306007334 heartbeat IPC: 0.690065 cumulative IPC: 0.600818 (Simulation time: 0 hr 41 min 47 sec) 
Heartbeat CPU 0 instructions: 860000003 cycles: 1320252737 heartbeat IPC: 0.701981 cumulative IPC: 0.60196 (Simulation time: 0 hr 42 min 16 sec) 
Heartbeat CPU 0 instructions: 870000002 cycles: 1334688038 heartbeat IPC: 0.692746 cumulative IPC: 0.602986 (Simulation time: 0 hr 42 min 45 sec) 
Heartbeat CPU 0 instructions: 880000000 cycles: 1349100462 heartbeat IPC: 0.693846 cumulative IPC: 0.604 (Simulation time: 0 hr 43 min 14 sec) 
Heartbeat CPU 0 instructions: 890000003 cycles: 1363527388 heartbeat IPC: 0.693149 cumulative IPC: 0.604985 (Simulation time: 0 hr 43 min 44 sec) 
Heartbeat CPU 0 instructions: 900000000 cycles: 1377952897 heartbeat IPC: 0.693216 cumulative IPC: 0.605949 (Simulation time: 0 hr 44 min 13 sec) 
Heartbeat CPU 0 instructions: 910000003 cycles: 1392398254 heartbeat IPC: 0.692264 cumulative IPC: 0.606883 (Simulation time: 0 hr 44 min 42 sec) 
Heartbeat CPU 0 instructions: 920000003 cycles: 1406827809 heartbeat IPC: 0.693022 cumulative IPC: 0.607805 (Simulation time: 0 hr 45 min 11 sec) 
Heartbeat CPU 0 instructions: 930000001 cycles: 1421270918 heartbeat IPC: 0.692372 cumulative IPC: 0.6087 (Simulation time: 0 hr 45 min 41 sec) 
Heartbeat CPU 0 instructions: 940000003 cycles: 1435706906 heartbeat IPC: 0.692713 cumulative IPC: 0.60958 (Simulation time: 0 hr 46 min 10 sec) 
Heartbeat CPU 0 instructions: 950000002 cycles: 1450164466 heartbeat IPC: 0.69168 cumulative IPC: 0.610433 (Simulation time: 0 hr 46 min 40 sec) 
Heartbeat CPU 0 instructions: 960000000 cycles: 1464632616 heartbeat IPC: 0.691173 cumulative IPC: 0.611263 (Simulation time: 0 hr 47 min 9 sec) 
Heartbeat CPU 0 instructions: 970000002 cycles: 1479074920 heartbeat IPC: 0.69241 cumulative IPC: 0.612088 (Simulation time: 0 hr 47 min 39 sec) 
Heartbeat CPU 0 instructions: 980000002 cycles: 1493506762 heartbeat IPC: 0.692912 cumulative IPC: 0.6129 (Simulation time: 0 hr 48 min 8 sec) 
Heartbeat CPU 0 instructions: 990000000 cycles: 1507963165 heartbeat IPC: 0.691735 cumulative IPC: 0.613686 (Simulation time: 0 hr 48 min 38 sec) 
Heartbeat CPU 0 instructions: 1000000001 cycles: 1522361145 heartbeat IPC: 0.694542 cumulative IPC: 0.614481 (Simulation time: 0 hr 49 min 7 sec) 
Heartbeat CPU 0 instructions: 1010000001 cycles: 1536810123 heartbeat IPC: 0.69209 cumulative IPC: 0.615239 (Simulation time: 0 hr 49 min 37 sec) 
Heartbeat CPU 0 instructions: 1020000002 cycles: 1551188577 heartbeat IPC: 0.695485 cumulative IPC: 0.616012 (Simulation time: 0 hr 50 min 7 sec) 
Heartbeat CPU 0 instructions: 1030000001 cycles: 1565582820 heartbeat IPC: 0.694722 cumulative IPC: 0.616763 (Simulation time: 0 hr 50 min 36 sec) 
Heartbeat CPU 0 instructions: 1040000001 cycles: 1580035553 heartbeat IPC: 0.691911 cumulative IPC: 0.617476 (Simulation time: 0 hr 51 min 5 sec) 
Heartbeat CPU 0 instructions: 1050000000 cycles: 1594441136 heartbeat IPC: 0.694175 cumulative IPC: 0.618195 (Simulation time: 0 hr 51 min 34 sec) 
Heartbeat CPU 0 instructions: 1060000003 cycles: 1608889691 heartbeat IPC: 0.692111 cumulative IPC: 0.618884 (Simulation time: 0 hr 52 min 4 sec) 
Heartbeat CPU 0 instructions: 1070000001 cycles: 1623322591 heartbeat IPC: 0.692861 cumulative IPC: 0.619566 (Simulation time: 0 hr 52 min 33 sec) 
Heartbeat CPU 0 instructions: 1080000001 cycles: 1637782609 heartbeat IPC: 0.691562 cumulative IPC: 0.620225 (Simulation time: 0 hr 53 min 2 sec) 
Heartbeat CPU 0 instructions: 1090000000 cycles: 1652177747 heartbeat IPC: 0.694679 cumulative IPC: 0.620897 (Simulation time: 0 hr 53 min 31 sec) 
Heartbeat CPU 0 instructions: 1100000000 cycles: 1666587595 heartbeat IPC: 0.69397 cumulative IPC: 0.621551 (Simulation time: 0 hr 54 min 1 sec) 
Finished CPU 0 instructions: 1000000000 cycles: 1608877669 cumulative IPC: 0.621551 (Simulation time: 0 hr 54 min 1 sec) 

ChampSim completed all CPUs

Region of Interest Statistics

CPU 0 cumulative IPC: 0.621551 instructions: 1000000000 cycles: 1608877669
L1D TOTAL     ACCESS:  450514459  HIT:  430149808  MISS:   20364651
L1D LOAD      ACCESS:  380512070  HIT:  360630214  MISS:   19881856
L1D RFO       ACCESS:   70002389  HIT:   69519594  MISS:     482795
L1D PREFETCH  ACCESS:          0  HIT:          0  MISS:          0
L1D WRITEBACK ACCESS:          0  HIT:          0  MISS:          0
L1D PREFETCH  REQUESTED:          0  ISSUED:          0  USEFUL:          0  USELESS:          0
L1D AVERAGE MISS LATENCY: 296.302 cycles
L1I TOTAL     ACCESS:  152465467  HIT:  152465379  MISS:         88
L1I LOAD      ACCESS:  152465467  HIT:  152465379  MISS:         88
L1I RFO       ACCESS:          0  HIT:          0  MISS:          0
L1I PREFETCH  ACCESS:          0  HIT:          0  MISS:          0
L1I WRITEBACK ACCESS:          0  HIT:          0  MISS:          0
L1I PREFETCH  REQUESTED:          0  ISSUED:          0  USEFUL:          0  USELESS:          0
L1I AVERAGE MISS LATENCY: 237.557 cycles
L2C TOTAL     ACCESS:   21626505  HIT:    2968312  MISS:   18658193
L2C LOAD      ACCESS:   19874918  HIT:    1633204  MISS:   18241714
L2C RFO       ACCESS:     482162  HIT:      73343  MISS:     408819
L2C PREFETCH  ACCESS:          0  HIT:          0  MISS:          0
L2C WRITEBACK ACCESS:    1269425  HIT:    1261765  MISS:       7660
L2C PREFETCH  REQUESTED:          0  ISSUED:          0  USEFUL:          0  USELESS:          0
L2C AVERAGE MISS LATENCY: 309.265 cycles
LLC TOTAL     ACCESS:   19743291  HIT:     117724  MISS:   19625567
LLC LOAD      ACCESS:   18241714  HIT:      78792  MISS:   18162922
LLC RFO       ACCESS:     408819  HIT:        231  MISS:     408588
LLC PREFETCH  ACCESS:          0  HIT:          0  MISS:          0
LLC WRITEBACK ACCESS:    1092758  HIT:      38701  MISS:    1054057
LLC PREFETCH  REQUESTED:          0  ISSUED:          0  USEFUL:          0  USELESS:          0
LLC AVERAGE MISS LATENCY: 255.117 cycles
Major fault: 0 Minor fault: 108280
==============================
Perceptron RRIP Stats:
   Num Updates:          673514
   Num Primary Trains:   551
   Num Secondary Trains: 627
==============================
primary_perceptron #0: -3 1 5 -3 1 -1 -3 1 -3 -1 5 -3 -1 3 1 -31 
secondary_perceptron #0: -5 1 5 -5 3 -1 -1 -1 -5 -1 3 -3 -1 5 3 3 -1 -1 1 -1 -43 


DRAM Statistics
 CHANNEL 0
 RQ ROW_BUFFER_HIT:   12419843  ROW_BUFFER_MISS:    6151667
 DBUS_CONGESTED:    1160313
 WQ ROW_BUFFER_HIT:     705895  ROW_BUFFER_MISS:     376491  FULL:          0

 AVG_CONGESTED_CYCLE: 5

CPU 0 Branch Prediction Accuracy: 85.1428% MPKI: 5.85696 Average ROB Occupancy at Mispredict: 130.844

Branch types
NOT_BRANCH: 960578062 96.0578%
BRANCH_DIRECT_JUMP: 5163018 0.516302%
BRANCH_INDIRECT: 0 0%
BRANCH_CONDITIONAL: 34258555 3.42586%
BRANCH_DIRECT_CALL: 2 2e-07%
BRANCH_INDIRECT_CALL: 0 0%
BRANCH_RETURN: 2 2e-07%
BRANCH_OTHER: 0 0%

