
*** ChampSim Multicore Out-of-Order Simulator ***

Warmup Instructions: 100000000
Simulation Instructions: 1000000000
Number of CPUs: 1
LLC sets: 2048
LLC ways: 16
Off-chip DRAM Size: 4096 MB Channels: 1 Width: 64-bit Data Rate: 3200 MT/s

CPU 0 runs /scratch/user/kevin.weston/dpc3-traces/410.champsimtrace.xz
CPU 0 Bimodal branch predictor
Initialize RRPV
Initialize PRRIP state
Heartbeat CPU 0 instructions: 10000002 cycles: 5771061 heartbeat IPC: 1.73278 cumulative IPC: 1.73278 (Simulation time: 0 hr 0 min 30 sec) 
Heartbeat CPU 0 instructions: 20000000 cycles: 11542213 heartbeat IPC: 1.73276 cumulative IPC: 1.73277 (Simulation time: 0 hr 0 min 59 sec) 
Heartbeat CPU 0 instructions: 30000000 cycles: 17313498 heartbeat IPC: 1.73272 cumulative IPC: 1.73275 (Simulation time: 0 hr 1 min 28 sec) 
Heartbeat CPU 0 instructions: 40000000 cycles: 23084663 heartbeat IPC: 1.73275 cumulative IPC: 1.73275 (Simulation time: 0 hr 1 min 58 sec) 
Heartbeat CPU 0 instructions: 50000000 cycles: 28855959 heartbeat IPC: 1.73271 cumulative IPC: 1.73274 (Simulation time: 0 hr 2 min 27 sec) 
Heartbeat CPU 0 instructions: 60000003 cycles: 34626955 heartbeat IPC: 1.7328 cumulative IPC: 1.73275 (Simulation time: 0 hr 2 min 57 sec) 
Heartbeat CPU 0 instructions: 70000000 cycles: 40397809 heartbeat IPC: 1.73285 cumulative IPC: 1.73277 (Simulation time: 0 hr 3 min 27 sec) 
Heartbeat CPU 0 instructions: 80000001 cycles: 46168649 heartbeat IPC: 1.73285 cumulative IPC: 1.73278 (Simulation time: 0 hr 3 min 56 sec) 
Heartbeat CPU 0 instructions: 90000003 cycles: 51939446 heartbeat IPC: 1.73286 cumulative IPC: 1.73279 (Simulation time: 0 hr 4 min 26 sec) 
Heartbeat CPU 0 instructions: 100000002 cycles: 57710211 heartbeat IPC: 1.73287 cumulative IPC: 1.7328 (Simulation time: 0 hr 4 min 55 sec) 

Warmup complete CPU 0 instructions: 100000002 cycles: 57710211 (Simulation time: 0 hr 4 min 55 sec) 

Heartbeat CPU 0 instructions: 110000000 cycles: 72009144 heartbeat IPC: 0.699353 cumulative IPC: 0.699353 (Simulation time: 0 hr 5 min 23 sec) 
Heartbeat CPU 0 instructions: 120000001 cycles: 86356172 heartbeat IPC: 0.697009 cumulative IPC: 0.698179 (Simulation time: 0 hr 5 min 51 sec) 
Heartbeat CPU 0 instructions: 130000000 cycles: 100741078 heartbeat IPC: 0.695173 cumulative IPC: 0.697174 (Simulation time: 0 hr 6 min 20 sec) 
Heartbeat CPU 0 instructions: 140000000 cycles: 115088767 heartbeat IPC: 0.696976 cumulative IPC: 0.697125 (Simulation time: 0 hr 6 min 48 sec) 
Heartbeat CPU 0 instructions: 150000000 cycles: 129455141 heartbeat IPC: 0.69607 cumulative IPC: 0.696913 (Simulation time: 0 hr 7 min 16 sec) 
Heartbeat CPU 0 instructions: 160000003 cycles: 143808130 heartbeat IPC: 0.696719 cumulative IPC: 0.696881 (Simulation time: 0 hr 7 min 45 sec) 
Heartbeat CPU 0 instructions: 170000001 cycles: 158184567 heartbeat IPC: 0.695583 cumulative IPC: 0.696695 (Simulation time: 0 hr 8 min 13 sec) 
Heartbeat CPU 0 instructions: 180000002 cycles: 172516554 heartbeat IPC: 0.69774 cumulative IPC: 0.696826 (Simulation time: 0 hr 8 min 41 sec) 
Heartbeat CPU 0 instructions: 190000000 cycles: 186936805 heartbeat IPC: 0.693469 cumulative IPC: 0.696451 (Simulation time: 0 hr 9 min 10 sec) 
Heartbeat CPU 0 instructions: 200000003 cycles: 201407154 heartbeat IPC: 0.691069 cumulative IPC: 0.695909 (Simulation time: 0 hr 9 min 38 sec) 
Heartbeat CPU 0 instructions: 210000003 cycles: 215850804 heartbeat IPC: 0.692346 cumulative IPC: 0.695584 (Simulation time: 0 hr 10 min 7 sec) 
Heartbeat CPU 0 instructions: 220000000 cycles: 230319011 heartbeat IPC: 0.69117 cumulative IPC: 0.695214 (Simulation time: 0 hr 10 min 35 sec) 
Heartbeat CPU 0 instructions: 230000000 cycles: 244731832 heartbeat IPC: 0.693827 cumulative IPC: 0.695107 (Simulation time: 0 hr 11 min 3 sec) 
Heartbeat CPU 0 instructions: 240000002 cycles: 259100999 heartbeat IPC: 0.695935 cumulative IPC: 0.695166 (Simulation time: 0 hr 11 min 32 sec) 
Heartbeat CPU 0 instructions: 250000000 cycles: 273514529 heartbeat IPC: 0.693792 cumulative IPC: 0.695074 (Simulation time: 0 hr 12 min 0 sec) 
Heartbeat CPU 0 instructions: 260000003 cycles: 287884947 heartbeat IPC: 0.695874 cumulative IPC: 0.695124 (Simulation time: 0 hr 12 min 29 sec) 
Heartbeat CPU 0 instructions: 270000003 cycles: 302250261 heartbeat IPC: 0.696121 cumulative IPC: 0.695183 (Simulation time: 0 hr 12 min 57 sec) 
Heartbeat CPU 0 instructions: 280000002 cycles: 316663746 heartbeat IPC: 0.693795 cumulative IPC: 0.695105 (Simulation time: 0 hr 13 min 25 sec) 
Heartbeat CPU 0 instructions: 290000001 cycles: 331040235 heartbeat IPC: 0.69558 cumulative IPC: 0.69513 (Simulation time: 0 hr 13 min 54 sec) 
Heartbeat CPU 0 instructions: 300000001 cycles: 345544125 heartbeat IPC: 0.68947 cumulative IPC: 0.694845 (Simulation time: 0 hr 14 min 22 sec) 
Heartbeat CPU 0 instructions: 310000001 cycles: 359929248 heartbeat IPC: 0.695163 cumulative IPC: 0.69486 (Simulation time: 0 hr 14 min 51 sec) 
Heartbeat CPU 0 instructions: 320000001 cycles: 374346059 heartbeat IPC: 0.693635 cumulative IPC: 0.694804 (Simulation time: 0 hr 15 min 19 sec) 
Heartbeat CPU 0 instructions: 330000000 cycles: 388727762 heartbeat IPC: 0.695328 cumulative IPC: 0.694827 (Simulation time: 0 hr 15 min 48 sec) 
Heartbeat CPU 0 instructions: 340000000 cycles: 403109185 heartbeat IPC: 0.695341 cumulative IPC: 0.694849 (Simulation time: 0 hr 16 min 16 sec) 
Heartbeat CPU 0 instructions: 350000001 cycles: 426489544 heartbeat IPC: 0.427709 cumulative IPC: 0.677912 (Simulation time: 0 hr 16 min 44 sec) 
Heartbeat CPU 0 instructions: 360000002 cycles: 454607498 heartbeat IPC: 0.355645 cumulative IPC: 0.655081 (Simulation time: 0 hr 17 min 12 sec) 
Heartbeat CPU 0 instructions: 370000003 cycles: 477604574 heartbeat IPC: 0.434838 cumulative IPC: 0.643019 (Simulation time: 0 hr 17 min 39 sec) 
Heartbeat CPU 0 instructions: 380000000 cycles: 497164260 heartbeat IPC: 0.511256 cumulative IPC: 0.637154 (Simulation time: 0 hr 18 min 6 sec) 
Heartbeat CPU 0 instructions: 390000000 cycles: 511626295 heartbeat IPC: 0.691466 cumulative IPC: 0.638885 (Simulation time: 0 hr 18 min 35 sec) 
Heartbeat CPU 0 instructions: 400000002 cycles: 526264988 heartbeat IPC: 0.683121 cumulative IPC: 0.640267 (Simulation time: 0 hr 19 min 4 sec) 
Heartbeat CPU 0 instructions: 410000003 cycles: 540687596 heartbeat IPC: 0.693356 cumulative IPC: 0.641852 (Simulation time: 0 hr 19 min 32 sec) 
Heartbeat CPU 0 instructions: 420000002 cycles: 555254361 heartbeat IPC: 0.686494 cumulative IPC: 0.643159 (Simulation time: 0 hr 20 min 1 sec) 
Heartbeat CPU 0 instructions: 430000001 cycles: 569867549 heartbeat IPC: 0.684313 cumulative IPC: 0.644333 (Simulation time: 0 hr 20 min 29 sec) 
Heartbeat CPU 0 instructions: 440000000 cycles: 584430398 heartbeat IPC: 0.686679 cumulative IPC: 0.645504 (Simulation time: 0 hr 20 min 58 sec) 
Heartbeat CPU 0 instructions: 450000002 cycles: 598939399 heartbeat IPC: 0.689227 cumulative IPC: 0.646676 (Simulation time: 0 hr 21 min 26 sec) 
Heartbeat CPU 0 instructions: 460000000 cycles: 613460955 heartbeat IPC: 0.688631 cumulative IPC: 0.647772 (Simulation time: 0 hr 21 min 55 sec) 
Heartbeat CPU 0 instructions: 470000002 cycles: 628086270 heartbeat IPC: 0.683746 cumulative IPC: 0.648695 (Simulation time: 0 hr 22 min 24 sec) 
Heartbeat CPU 0 instructions: 480000000 cycles: 642682039 heartbeat IPC: 0.68513 cumulative IPC: 0.649604 (Simulation time: 0 hr 22 min 52 sec) 
Heartbeat CPU 0 instructions: 490000003 cycles: 657234218 heartbeat IPC: 0.687183 cumulative IPC: 0.650516 (Simulation time: 0 hr 23 min 21 sec) 
Heartbeat CPU 0 instructions: 500000003 cycles: 671862478 heartbeat IPC: 0.683608 cumulative IPC: 0.651304 (Simulation time: 0 hr 23 min 49 sec) 
Heartbeat CPU 0 instructions: 510000000 cycles: 686435523 heartbeat IPC: 0.686198 cumulative IPC: 0.652113 (Simulation time: 0 hr 24 min 18 sec) 
Heartbeat CPU 0 instructions: 520000002 cycles: 701050072 heartbeat IPC: 0.68425 cumulative IPC: 0.652843 (Simulation time: 0 hr 24 min 47 sec) 
Heartbeat CPU 0 instructions: 530000000 cycles: 715593394 heartbeat IPC: 0.687601 cumulative IPC: 0.653611 (Simulation time: 0 hr 25 min 15 sec) 
Heartbeat CPU 0 instructions: 540000001 cycles: 730146603 heartbeat IPC: 0.687134 cumulative IPC: 0.654337 (Simulation time: 0 hr 25 min 44 sec) 
Heartbeat CPU 0 instructions: 550000000 cycles: 744735250 heartbeat IPC: 0.685464 cumulative IPC: 0.654998 (Simulation time: 0 hr 26 min 12 sec) 
Heartbeat CPU 0 instructions: 560000002 cycles: 759298441 heartbeat IPC: 0.686663 cumulative IPC: 0.655655 (Simulation time: 0 hr 26 min 41 sec) 
Heartbeat CPU 0 instructions: 570000002 cycles: 773819209 heartbeat IPC: 0.688669 cumulative IPC: 0.656325 (Simulation time: 0 hr 27 min 9 sec) 
Heartbeat CPU 0 instructions: 580000000 cycles: 788394092 heartbeat IPC: 0.686112 cumulative IPC: 0.656919 (Simulation time: 0 hr 27 min 38 sec) 
Heartbeat CPU 0 instructions: 590000002 cycles: 803047779 heartbeat IPC: 0.682422 cumulative IPC: 0.65742 (Simulation time: 0 hr 28 min 7 sec) 
Heartbeat CPU 0 instructions: 600000000 cycles: 817652737 heartbeat IPC: 0.684699 cumulative IPC: 0.657945 (Simulation time: 0 hr 28 min 35 sec) 
Heartbeat CPU 0 instructions: 610000001 cycles: 831875239 heartbeat IPC: 0.703111 cumulative IPC: 0.658774 (Simulation time: 0 hr 29 min 4 sec) 
Heartbeat CPU 0 instructions: 620000000 cycles: 846469062 heartbeat IPC: 0.685221 cumulative IPC: 0.659264 (Simulation time: 0 hr 29 min 32 sec) 
Heartbeat CPU 0 instructions: 630000003 cycles: 860995531 heartbeat IPC: 0.688399 cumulative IPC: 0.65979 (Simulation time: 0 hr 30 min 1 sec) 
Heartbeat CPU 0 instructions: 640000000 cycles: 875527643 heartbeat IPC: 0.688131 cumulative IPC: 0.660294 (Simulation time: 0 hr 30 min 29 sec) 
Heartbeat CPU 0 instructions: 650000001 cycles: 890037262 heartbeat IPC: 0.689198 cumulative IPC: 0.660798 (Simulation time: 0 hr 30 min 58 sec) 
Heartbeat CPU 0 instructions: 660000000 cycles: 904551594 heartbeat IPC: 0.688974 cumulative IPC: 0.661281 (Simulation time: 0 hr 31 min 26 sec) 
Heartbeat CPU 0 instructions: 670000002 cycles: 919143152 heartbeat IPC: 0.685328 cumulative IPC: 0.661688 (Simulation time: 0 hr 31 min 55 sec) 
Heartbeat CPU 0 instructions: 680000001 cycles: 933716953 heartbeat IPC: 0.686163 cumulative IPC: 0.662095 (Simulation time: 0 hr 32 min 24 sec) 
Heartbeat CPU 0 instructions: 690000000 cycles: 948309242 heartbeat IPC: 0.685293 cumulative IPC: 0.662475 (Simulation time: 0 hr 32 min 52 sec) 
Heartbeat CPU 0 instructions: 700000000 cycles: 962901784 heartbeat IPC: 0.685282 cumulative IPC: 0.662843 (Simulation time: 0 hr 33 min 21 sec) 
Heartbeat CPU 0 instructions: 710000000 cycles: 977510750 heartbeat IPC: 0.684511 cumulative IPC: 0.663187 (Simulation time: 0 hr 33 min 50 sec) 
Heartbeat CPU 0 instructions: 720000002 cycles: 992087394 heartbeat IPC: 0.686029 cumulative IPC: 0.663544 (Simulation time: 0 hr 34 min 18 sec) 
Heartbeat CPU 0 instructions: 730000000 cycles: 1006509194 heartbeat IPC: 0.693395 cumulative IPC: 0.663997 (Simulation time: 0 hr 34 min 47 sec) 
Heartbeat CPU 0 instructions: 740000002 cycles: 1026905173 heartbeat IPC: 0.490293 cumulative IPC: 0.660342 (Simulation time: 0 hr 35 min 14 sec) 
Heartbeat CPU 0 instructions: 750000000 cycles: 1053864663 heartbeat IPC: 0.370927 cumulative IPC: 0.652509 (Simulation time: 0 hr 35 min 40 sec) 
Heartbeat CPU 0 instructions: 760000000 cycles: 1081580903 heartbeat IPC: 0.360799 cumulative IPC: 0.644613 (Simulation time: 0 hr 36 min 10 sec) 
Heartbeat CPU 0 instructions: 770000000 cycles: 1111732277 heartbeat IPC: 0.33166 cumulative IPC: 0.63566 (Simulation time: 0 hr 36 min 44 sec) 
Heartbeat CPU 0 instructions: 780000000 cycles: 1141881762 heartbeat IPC: 0.331681 cumulative IPC: 0.627207 (Simulation time: 0 hr 37 min 18 sec) 
Heartbeat CPU 0 instructions: 790000003 cycles: 1164162325 heartbeat IPC: 0.448822 cumulative IPC: 0.623615 (Simulation time: 0 hr 37 min 44 sec) 
Heartbeat CPU 0 instructions: 800000001 cycles: 1182193678 heartbeat IPC: 0.554589 cumulative IPC: 0.622508 (Simulation time: 0 hr 38 min 5 sec) 
Heartbeat CPU 0 instructions: 810000001 cycles: 1212613917 heartbeat IPC: 0.328729 cumulative IPC: 0.61477 (Simulation time: 0 hr 38 min 33 sec) 
Heartbeat CPU 0 instructions: 820000001 cycles: 1240558470 heartbeat IPC: 0.357852 cumulative IPC: 0.6087 (Simulation time: 0 hr 39 min 2 sec) 
Heartbeat CPU 0 instructions: 830000001 cycles: 1268981477 heartbeat IPC: 0.351828 cumulative IPC: 0.602673 (Simulation time: 0 hr 39 min 32 sec) 
Heartbeat CPU 0 instructions: 840000003 cycles: 1289682424 heartbeat IPC: 0.48307 cumulative IPC: 0.600663 (Simulation time: 0 hr 40 min 2 sec) 
Heartbeat CPU 0 instructions: 850000001 cycles: 1304299018 heartbeat IPC: 0.684154 cumulative IPC: 0.601642 (Simulation time: 0 hr 40 min 31 sec) 
Heartbeat CPU 0 instructions: 860000003 cycles: 1318598802 heartbeat IPC: 0.699311 cumulative IPC: 0.60275 (Simulation time: 0 hr 40 min 59 sec) 
Heartbeat CPU 0 instructions: 870000002 cycles: 1332967509 heartbeat IPC: 0.695957 cumulative IPC: 0.6038 (Simulation time: 0 hr 41 min 28 sec) 
Heartbeat CPU 0 instructions: 880000000 cycles: 1347274805 heartbeat IPC: 0.698944 cumulative IPC: 0.604855 (Simulation time: 0 hr 41 min 56 sec) 
Heartbeat CPU 0 instructions: 890000003 cycles: 1361699872 heartbeat IPC: 0.693238 cumulative IPC: 0.605833 (Simulation time: 0 hr 42 min 25 sec) 
Heartbeat CPU 0 instructions: 900000000 cycles: 1376056162 heartbeat IPC: 0.696559 cumulative IPC: 0.606821 (Simulation time: 0 hr 42 min 53 sec) 
Heartbeat CPU 0 instructions: 910000003 cycles: 1390412058 heartbeat IPC: 0.696578 cumulative IPC: 0.607788 (Simulation time: 0 hr 43 min 22 sec) 
Heartbeat CPU 0 instructions: 920000003 cycles: 1404755951 heartbeat IPC: 0.697161 cumulative IPC: 0.60874 (Simulation time: 0 hr 43 min 50 sec) 
Heartbeat CPU 0 instructions: 930000001 cycles: 1419188973 heartbeat IPC: 0.692855 cumulative IPC: 0.609631 (Simulation time: 0 hr 44 min 19 sec) 
Heartbeat CPU 0 instructions: 940000003 cycles: 1433643639 heartbeat IPC: 0.691818 cumulative IPC: 0.610495 (Simulation time: 0 hr 44 min 47 sec) 
Heartbeat CPU 0 instructions: 950000002 cycles: 1448049477 heartbeat IPC: 0.694163 cumulative IPC: 0.611362 (Simulation time: 0 hr 45 min 16 sec) 
Heartbeat CPU 0 instructions: 960000000 cycles: 1462495919 heartbeat IPC: 0.692212 cumulative IPC: 0.612193 (Simulation time: 0 hr 45 min 45 sec) 
Heartbeat CPU 0 instructions: 970000002 cycles: 1476904493 heartbeat IPC: 0.694031 cumulative IPC: 0.613024 (Simulation time: 0 hr 46 min 13 sec) 
Heartbeat CPU 0 instructions: 980000002 cycles: 1491349117 heartbeat IPC: 0.692299 cumulative IPC: 0.613823 (Simulation time: 0 hr 46 min 42 sec) 
Heartbeat CPU 0 instructions: 990000000 cycles: 1505743135 heartbeat IPC: 0.694733 cumulative IPC: 0.614627 (Simulation time: 0 hr 47 min 10 sec) 
Heartbeat CPU 0 instructions: 1000000001 cycles: 1520122005 heartbeat IPC: 0.695465 cumulative IPC: 0.615422 (Simulation time: 0 hr 47 min 39 sec) 
Heartbeat CPU 0 instructions: 1010000001 cycles: 1534490246 heartbeat IPC: 0.695979 cumulative IPC: 0.616206 (Simulation time: 0 hr 48 min 7 sec) 
Heartbeat CPU 0 instructions: 1020000002 cycles: 1548850778 heartbeat IPC: 0.696353 cumulative IPC: 0.616977 (Simulation time: 0 hr 48 min 36 sec) 
Heartbeat CPU 0 instructions: 1030000001 cycles: 1563191841 heartbeat IPC: 0.697298 cumulative IPC: 0.617743 (Simulation time: 0 hr 49 min 5 sec) 
Heartbeat CPU 0 instructions: 1040000001 cycles: 1577594116 heartbeat IPC: 0.694335 cumulative IPC: 0.618468 (Simulation time: 0 hr 49 min 33 sec) 
Heartbeat CPU 0 instructions: 1050000000 cycles: 1592072866 heartbeat IPC: 0.690667 cumulative IPC: 0.61915 (Simulation time: 0 hr 50 min 2 sec) 
Heartbeat CPU 0 instructions: 1060000003 cycles: 1606491113 heartbeat IPC: 0.693566 cumulative IPC: 0.619842 (Simulation time: 0 hr 50 min 30 sec) 
Heartbeat CPU 0 instructions: 1070000001 cycles: 1620953820 heartbeat IPC: 0.691433 cumulative IPC: 0.620505 (Simulation time: 0 hr 50 min 59 sec) 
Heartbeat CPU 0 instructions: 1080000001 cycles: 1635344992 heartbeat IPC: 0.69487 cumulative IPC: 0.621183 (Simulation time: 0 hr 51 min 27 sec) 
Heartbeat CPU 0 instructions: 1090000000 cycles: 1649706289 heartbeat IPC: 0.696316 cumulative IPC: 0.621861 (Simulation time: 0 hr 51 min 56 sec) 
Heartbeat CPU 0 instructions: 1100000000 cycles: 1664104368 heartbeat IPC: 0.694537 cumulative IPC: 0.622512 (Simulation time: 0 hr 52 min 25 sec) 
Finished CPU 0 instructions: 1000000000 cycles: 1606394166 cumulative IPC: 0.622512 (Simulation time: 0 hr 52 min 25 sec) 

ChampSim completed all CPUs

Region of Interest Statistics

CPU 0 cumulative IPC: 0.622512 instructions: 1000000000 cycles: 1606394166
L1D TOTAL     ACCESS:  450501122  HIT:  430136695  MISS:   20364427
L1D LOAD      ACCESS:  380505040  HIT:  360623090  MISS:   19881950
L1D RFO       ACCESS:   69996082  HIT:   69513605  MISS:     482477
L1D PREFETCH  ACCESS:          0  HIT:          0  MISS:          0
L1D WRITEBACK ACCESS:          0  HIT:          0  MISS:          0
L1D PREFETCH  REQUESTED:          0  ISSUED:          0  USEFUL:          0  USELESS:          0
L1D AVERAGE MISS LATENCY: 295.446 cycles
L1I TOTAL     ACCESS:  152465353  HIT:  152465265  MISS:         88
L1I LOAD      ACCESS:  152465353  HIT:  152465265  MISS:         88
L1I RFO       ACCESS:          0  HIT:          0  MISS:          0
L1I PREFETCH  ACCESS:          0  HIT:          0  MISS:          0
L1I WRITEBACK ACCESS:          0  HIT:          0  MISS:          0
L1I PREFETCH  REQUESTED:          0  ISSUED:          0  USEFUL:          0  USELESS:          0
L1I AVERAGE MISS LATENCY: 227.682 cycles
L2C TOTAL     ACCESS:   21625931  HIT:    2967687  MISS:   18658244
L2C LOAD      ACCESS:   19874997  HIT:    1633366  MISS:   18241631
L2C RFO       ACCESS:     481837  HIT:      73018  MISS:     408819
L2C PREFETCH  ACCESS:          0  HIT:          0  MISS:          0
L2C WRITEBACK ACCESS:    1269097  HIT:    1261303  MISS:       7794
L2C PREFETCH  REQUESTED:          0  ISSUED:          0  USEFUL:          0  USELESS:          0
L2C AVERAGE MISS LATENCY: 308.327 cycles
LLC TOTAL     ACCESS:   19743300  HIT:     278013  MISS:   19465287
LLC LOAD      ACCESS:   18241631  HIT:      79575  MISS:   18162056
LLC RFO       ACCESS:     408819  HIT:          1  MISS:     408818
LLC PREFETCH  ACCESS:          0  HIT:          0  MISS:          0
LLC WRITEBACK ACCESS:    1092850  HIT:     198437  MISS:     894413
LLC PREFETCH  REQUESTED:          0  ISSUED:          0  USEFUL:          0  USELESS:          0
LLC AVERAGE MISS LATENCY: 256.318 cycles
Major fault: 0 Minor fault: 108280
==============================
Perceptron RRIP Stats:
   Num Updates:          21593963
   Num Primary Trains:   17090
   Num Secondary Trains: 4958
==============================
tag_perceptron #0: 0 -8 0 0 -2 6 2 4 4 6 4 -2 0 -6 -4 -38 
set_perceptron #0: -2 -10 4 0 -2 6 2 8 2 6 4 -4 0 -6 -6 0 0 0 4 0 -50 


DRAM Statistics
 CHANNEL 0
 RQ ROW_BUFFER_HIT:   12450933  ROW_BUFFER_MISS:    6119941
 DBUS_CONGESTED:    1152641
 WQ ROW_BUFFER_HIT:     685385  ROW_BUFFER_MISS:     386697  FULL:          0

 AVG_CONGESTED_CYCLE: 5

CPU 0 Branch Prediction Accuracy: 85.1428% MPKI: 5.85696 Average ROB Occupancy at Mispredict: 130.813

Branch types
NOT_BRANCH: 960578062 96.0578%
BRANCH_DIRECT_JUMP: 5163018 0.516302%
BRANCH_INDIRECT: 0 0%
BRANCH_CONDITIONAL: 34258555 3.42586%
BRANCH_DIRECT_CALL: 2 2e-07%
BRANCH_INDIRECT_CALL: 0 0%
BRANCH_RETURN: 2 2e-07%
BRANCH_OTHER: 0 0%

