
*** ChampSim Multicore Out-of-Order Simulator ***

Warmup Instructions: 100000000
Simulation Instructions: 1000000000
Number of CPUs: 1
LLC sets: 2048
LLC ways: 16
Off-chip DRAM Size: 4096 MB Channels: 1 Width: 64-bit Data Rate: 3200 MT/s

CPU 0 runs /scratch/user/kevin.weston/dpc3-traces/410.champsimtrace.xz
CPU 0 Bimodal branch predictor
Heartbeat CPU 0 instructions: 10000002 cycles: 5771092 heartbeat IPC: 1.73277 cumulative IPC: 1.73277 (Simulation time: 0 hr 0 min 31 sec) 
Heartbeat CPU 0 instructions: 20000000 cycles: 11542325 heartbeat IPC: 1.73273 cumulative IPC: 1.73275 (Simulation time: 0 hr 1 min 2 sec) 
Heartbeat CPU 0 instructions: 30000000 cycles: 17313678 heartbeat IPC: 1.7327 cumulative IPC: 1.73273 (Simulation time: 0 hr 1 min 32 sec) 
Heartbeat CPU 0 instructions: 40000000 cycles: 23084902 heartbeat IPC: 1.73273 cumulative IPC: 1.73273 (Simulation time: 0 hr 2 min 3 sec) 
Heartbeat CPU 0 instructions: 50000000 cycles: 28856202 heartbeat IPC: 1.73271 cumulative IPC: 1.73273 (Simulation time: 0 hr 2 min 34 sec) 
Heartbeat CPU 0 instructions: 60000003 cycles: 34627198 heartbeat IPC: 1.7328 cumulative IPC: 1.73274 (Simulation time: 0 hr 3 min 5 sec) 
Heartbeat CPU 0 instructions: 70000000 cycles: 40398080 heartbeat IPC: 1.73284 cumulative IPC: 1.73276 (Simulation time: 0 hr 3 min 36 sec) 
Heartbeat CPU 0 instructions: 80000001 cycles: 46168944 heartbeat IPC: 1.73284 cumulative IPC: 1.73277 (Simulation time: 0 hr 4 min 7 sec) 
Heartbeat CPU 0 instructions: 90000003 cycles: 51939755 heartbeat IPC: 1.73286 cumulative IPC: 1.73278 (Simulation time: 0 hr 4 min 38 sec) 
Heartbeat CPU 0 instructions: 100000002 cycles: 57710535 heartbeat IPC: 1.73287 cumulative IPC: 1.73279 (Simulation time: 0 hr 5 min 9 sec) 

Warmup complete CPU 0 instructions: 100000002 cycles: 57710535 (Simulation time: 0 hr 5 min 9 sec) 

Heartbeat CPU 0 instructions: 110000000 cycles: 72188457 heartbeat IPC: 0.690707 cumulative IPC: 0.690707 (Simulation time: 0 hr 5 min 38 sec) 
Heartbeat CPU 0 instructions: 120000001 cycles: 86617613 heartbeat IPC: 0.693041 cumulative IPC: 0.691872 (Simulation time: 0 hr 6 min 6 sec) 
Heartbeat CPU 0 instructions: 130000000 cycles: 101077649 heartbeat IPC: 0.691561 cumulative IPC: 0.691768 (Simulation time: 0 hr 6 min 35 sec) 
Heartbeat CPU 0 instructions: 140000000 cycles: 115478658 heartbeat IPC: 0.694396 cumulative IPC: 0.692423 (Simulation time: 0 hr 7 min 3 sec) 
Heartbeat CPU 0 instructions: 150000000 cycles: 129873159 heartbeat IPC: 0.69471 cumulative IPC: 0.692879 (Simulation time: 0 hr 7 min 32 sec) 
Heartbeat CPU 0 instructions: 160000003 cycles: 144300623 heartbeat IPC: 0.693123 cumulative IPC: 0.69292 (Simulation time: 0 hr 8 min 0 sec) 
Heartbeat CPU 0 instructions: 170000001 cycles: 158748266 heartbeat IPC: 0.692154 cumulative IPC: 0.69281 (Simulation time: 0 hr 8 min 29 sec) 
Heartbeat CPU 0 instructions: 180000002 cycles: 173134046 heartbeat IPC: 0.695131 cumulative IPC: 0.6931 (Simulation time: 0 hr 8 min 57 sec) 
Heartbeat CPU 0 instructions: 190000000 cycles: 187587958 heartbeat IPC: 0.691854 cumulative IPC: 0.692961 (Simulation time: 0 hr 9 min 26 sec) 
Heartbeat CPU 0 instructions: 200000003 cycles: 202092035 heartbeat IPC: 0.689462 cumulative IPC: 0.692609 (Simulation time: 0 hr 9 min 55 sec) 
Heartbeat CPU 0 instructions: 210000003 cycles: 216573313 heartbeat IPC: 0.690547 cumulative IPC: 0.692421 (Simulation time: 0 hr 10 min 23 sec) 
Heartbeat CPU 0 instructions: 220000000 cycles: 231062411 heartbeat IPC: 0.690174 cumulative IPC: 0.692234 (Simulation time: 0 hr 10 min 52 sec) 
Heartbeat CPU 0 instructions: 230000000 cycles: 245499861 heartbeat IPC: 0.692643 cumulative IPC: 0.692265 (Simulation time: 0 hr 11 min 21 sec) 
Heartbeat CPU 0 instructions: 240000002 cycles: 259896916 heartbeat IPC: 0.694587 cumulative IPC: 0.69243 (Simulation time: 0 hr 11 min 49 sec) 
Heartbeat CPU 0 instructions: 250000000 cycles: 274326220 heartbeat IPC: 0.693034 cumulative IPC: 0.692471 (Simulation time: 0 hr 12 min 18 sec) 
Heartbeat CPU 0 instructions: 260000003 cycles: 288705242 heartbeat IPC: 0.695458 cumulative IPC: 0.692657 (Simulation time: 0 hr 12 min 46 sec) 
Heartbeat CPU 0 instructions: 270000003 cycles: 303155899 heartbeat IPC: 0.69201 cumulative IPC: 0.692618 (Simulation time: 0 hr 13 min 15 sec) 
Heartbeat CPU 0 instructions: 280000002 cycles: 317581622 heartbeat IPC: 0.693206 cumulative IPC: 0.692651 (Simulation time: 0 hr 13 min 44 sec) 
Heartbeat CPU 0 instructions: 290000001 cycles: 332001504 heartbeat IPC: 0.693487 cumulative IPC: 0.692695 (Simulation time: 0 hr 14 min 12 sec) 
Heartbeat CPU 0 instructions: 300000001 cycles: 346507456 heartbeat IPC: 0.689372 cumulative IPC: 0.692528 (Simulation time: 0 hr 14 min 41 sec) 
Heartbeat CPU 0 instructions: 310000001 cycles: 360933441 heartbeat IPC: 0.693194 cumulative IPC: 0.69256 (Simulation time: 0 hr 15 min 10 sec) 
Heartbeat CPU 0 instructions: 320000001 cycles: 375404818 heartbeat IPC: 0.691019 cumulative IPC: 0.69249 (Simulation time: 0 hr 15 min 39 sec) 
Heartbeat CPU 0 instructions: 330000000 cycles: 389807024 heartbeat IPC: 0.694338 cumulative IPC: 0.69257 (Simulation time: 0 hr 16 min 7 sec) 
Heartbeat CPU 0 instructions: 340000000 cycles: 404206128 heartbeat IPC: 0.694488 cumulative IPC: 0.692649 (Simulation time: 0 hr 16 min 36 sec) 
Heartbeat CPU 0 instructions: 350000001 cycles: 427561172 heartbeat IPC: 0.428173 cumulative IPC: 0.675949 (Simulation time: 0 hr 17 min 4 sec) 
Heartbeat CPU 0 instructions: 360000002 cycles: 457208843 heartbeat IPC: 0.337295 cumulative IPC: 0.650816 (Simulation time: 0 hr 17 min 32 sec) 
Heartbeat CPU 0 instructions: 370000003 cycles: 480163140 heartbeat IPC: 0.435648 cumulative IPC: 0.639125 (Simulation time: 0 hr 17 min 58 sec) 
Heartbeat CPU 0 instructions: 380000000 cycles: 499897135 heartbeat IPC: 0.50674 cumulative IPC: 0.633217 (Simulation time: 0 hr 18 min 26 sec) 
Heartbeat CPU 0 instructions: 390000000 cycles: 514446734 heartbeat IPC: 0.687304 cumulative IPC: 0.63494 (Simulation time: 0 hr 18 min 55 sec) 
Heartbeat CPU 0 instructions: 400000002 cycles: 529053047 heartbeat IPC: 0.684636 cumulative IPC: 0.63648 (Simulation time: 0 hr 19 min 23 sec) 
Heartbeat CPU 0 instructions: 410000003 cycles: 543659499 heartbeat IPC: 0.684629 cumulative IPC: 0.637927 (Simulation time: 0 hr 19 min 52 sec) 
Heartbeat CPU 0 instructions: 420000002 cycles: 558248153 heartbeat IPC: 0.685464 cumulative IPC: 0.639313 (Simulation time: 0 hr 20 min 21 sec) 
Heartbeat CPU 0 instructions: 430000001 cycles: 572878782 heartbeat IPC: 0.683498 cumulative IPC: 0.640567 (Simulation time: 0 hr 20 min 49 sec) 
Heartbeat CPU 0 instructions: 440000000 cycles: 587492409 heartbeat IPC: 0.684293 cumulative IPC: 0.641774 (Simulation time: 0 hr 21 min 18 sec) 
Heartbeat CPU 0 instructions: 450000002 cycles: 602063483 heartbeat IPC: 0.686291 cumulative IPC: 0.642965 (Simulation time: 0 hr 21 min 47 sec) 
Heartbeat CPU 0 instructions: 460000000 cycles: 616636901 heartbeat IPC: 0.686181 cumulative IPC: 0.644092 (Simulation time: 0 hr 22 min 15 sec) 
Heartbeat CPU 0 instructions: 470000002 cycles: 631250990 heartbeat IPC: 0.684271 cumulative IPC: 0.645116 (Simulation time: 0 hr 22 min 44 sec) 
Heartbeat CPU 0 instructions: 480000000 cycles: 645874254 heartbeat IPC: 0.683842 cumulative IPC: 0.646079 (Simulation time: 0 hr 23 min 13 sec) 
Heartbeat CPU 0 instructions: 490000003 cycles: 660444728 heartbeat IPC: 0.68632 cumulative IPC: 0.647051 (Simulation time: 0 hr 23 min 41 sec) 
Heartbeat CPU 0 instructions: 500000003 cycles: 675071146 heartbeat IPC: 0.683694 cumulative IPC: 0.64792 (Simulation time: 0 hr 24 min 10 sec) 
Heartbeat CPU 0 instructions: 510000000 cycles: 689640191 heartbeat IPC: 0.686387 cumulative IPC: 0.648806 (Simulation time: 0 hr 24 min 39 sec) 
Heartbeat CPU 0 instructions: 520000002 cycles: 704258354 heartbeat IPC: 0.684081 cumulative IPC: 0.649604 (Simulation time: 0 hr 25 min 8 sec) 
Heartbeat CPU 0 instructions: 530000000 cycles: 718791912 heartbeat IPC: 0.688063 cumulative IPC: 0.650449 (Simulation time: 0 hr 25 min 36 sec) 
Heartbeat CPU 0 instructions: 540000001 cycles: 733333378 heartbeat IPC: 0.687689 cumulative IPC: 0.651251 (Simulation time: 0 hr 26 min 5 sec) 
Heartbeat CPU 0 instructions: 550000000 cycles: 747926571 heartbeat IPC: 0.685251 cumulative IPC: 0.65197 (Simulation time: 0 hr 26 min 34 sec) 
Heartbeat CPU 0 instructions: 560000002 cycles: 762522489 heartbeat IPC: 0.685123 cumulative IPC: 0.652656 (Simulation time: 0 hr 27 min 2 sec) 
Heartbeat CPU 0 instructions: 570000002 cycles: 777062766 heartbeat IPC: 0.687745 cumulative IPC: 0.653366 (Simulation time: 0 hr 27 min 31 sec) 
Heartbeat CPU 0 instructions: 580000000 cycles: 791658139 heartbeat IPC: 0.685148 cumulative IPC: 0.653998 (Simulation time: 0 hr 28 min 0 sec) 
Heartbeat CPU 0 instructions: 590000002 cycles: 806300397 heartbeat IPC: 0.682955 cumulative IPC: 0.654564 (Simulation time: 0 hr 28 min 28 sec) 
Heartbeat CPU 0 instructions: 600000000 cycles: 820934108 heartbeat IPC: 0.683354 cumulative IPC: 0.655116 (Simulation time: 0 hr 28 min 57 sec) 
Heartbeat CPU 0 instructions: 610000001 cycles: 835586571 heartbeat IPC: 0.682479 cumulative IPC: 0.655631 (Simulation time: 0 hr 29 min 26 sec) 
Heartbeat CPU 0 instructions: 620000000 cycles: 850177568 heartbeat IPC: 0.685354 cumulative IPC: 0.656179 (Simulation time: 0 hr 29 min 55 sec) 
Heartbeat CPU 0 instructions: 630000003 cycles: 864735902 heartbeat IPC: 0.686892 cumulative IPC: 0.656733 (Simulation time: 0 hr 30 min 24 sec) 
Heartbeat CPU 0 instructions: 640000000 cycles: 879318017 heartbeat IPC: 0.685771 cumulative IPC: 0.657248 (Simulation time: 0 hr 30 min 53 sec) 
Heartbeat CPU 0 instructions: 650000001 cycles: 893870353 heartbeat IPC: 0.687175 cumulative IPC: 0.657769 (Simulation time: 0 hr 31 min 21 sec) 
Heartbeat CPU 0 instructions: 660000000 cycles: 908413537 heartbeat IPC: 0.687607 cumulative IPC: 0.658279 (Simulation time: 0 hr 31 min 50 sec) 
Heartbeat CPU 0 instructions: 670000002 cycles: 923048272 heartbeat IPC: 0.683306 cumulative IPC: 0.658702 (Simulation time: 0 hr 32 min 19 sec) 
Heartbeat CPU 0 instructions: 680000001 cycles: 937633621 heartbeat IPC: 0.685619 cumulative IPC: 0.659149 (Simulation time: 0 hr 32 min 48 sec) 
Heartbeat CPU 0 instructions: 690000000 cycles: 952265128 heartbeat IPC: 0.683457 cumulative IPC: 0.659546 (Simulation time: 0 hr 33 min 16 sec) 
Heartbeat CPU 0 instructions: 700000000 cycles: 966869198 heartbeat IPC: 0.684741 cumulative IPC: 0.659951 (Simulation time: 0 hr 33 min 45 sec) 
Heartbeat CPU 0 instructions: 710000000 cycles: 981487452 heartbeat IPC: 0.684076 cumulative IPC: 0.660333 (Simulation time: 0 hr 34 min 14 sec) 
Heartbeat CPU 0 instructions: 720000002 cycles: 996044506 heartbeat IPC: 0.686952 cumulative IPC: 0.660746 (Simulation time: 0 hr 34 min 43 sec) 
Heartbeat CPU 0 instructions: 730000000 cycles: 1010619597 heartbeat IPC: 0.686102 cumulative IPC: 0.661133 (Simulation time: 0 hr 35 min 11 sec) 
Heartbeat CPU 0 instructions: 740000002 cycles: 1030941116 heartbeat IPC: 0.492089 cumulative IPC: 0.657604 (Simulation time: 0 hr 35 min 39 sec) 
Heartbeat CPU 0 instructions: 750000000 cycles: 1057899329 heartbeat IPC: 0.370944 cumulative IPC: 0.649877 (Simulation time: 0 hr 36 min 5 sec) 
Heartbeat CPU 0 instructions: 760000000 cycles: 1086689829 heartbeat IPC: 0.347337 cumulative IPC: 0.641412 (Simulation time: 0 hr 36 min 35 sec) 
Heartbeat CPU 0 instructions: 770000000 cycles: 1116836629 heartbeat IPC: 0.33171 cumulative IPC: 0.632597 (Simulation time: 0 hr 37 min 8 sec) 
Heartbeat CPU 0 instructions: 780000000 cycles: 1146983667 heartbeat IPC: 0.331708 cumulative IPC: 0.624269 (Simulation time: 0 hr 37 min 41 sec) 
Heartbeat CPU 0 instructions: 790000003 cycles: 1169921952 heartbeat IPC: 0.435953 cumulative IPC: 0.620386 (Simulation time: 0 hr 38 min 7 sec) 
Heartbeat CPU 0 instructions: 800000001 cycles: 1187706562 heartbeat IPC: 0.562284 cumulative IPC: 0.619471 (Simulation time: 0 hr 38 min 28 sec) 
Heartbeat CPU 0 instructions: 810000001 cycles: 1219638072 heartbeat IPC: 0.31317 cumulative IPC: 0.611054 (Simulation time: 0 hr 38 min 56 sec) 
Heartbeat CPU 0 instructions: 820000001 cycles: 1248839512 heartbeat IPC: 0.342449 cumulative IPC: 0.604469 (Simulation time: 0 hr 39 min 26 sec) 
Heartbeat CPU 0 instructions: 830000001 cycles: 1277255880 heartbeat IPC: 0.35191 cumulative IPC: 0.598584 (Simulation time: 0 hr 39 min 56 sec) 
Heartbeat CPU 0 instructions: 840000003 cycles: 1298166441 heartbeat IPC: 0.478227 cumulative IPC: 0.596555 (Simulation time: 0 hr 40 min 25 sec) 
Heartbeat CPU 0 instructions: 850000001 cycles: 1312716883 heartbeat IPC: 0.687264 cumulative IPC: 0.597607 (Simulation time: 0 hr 40 min 54 sec) 
Heartbeat CPU 0 instructions: 860000003 cycles: 1327092324 heartbeat IPC: 0.695631 cumulative IPC: 0.598717 (Simulation time: 0 hr 41 min 22 sec) 
Heartbeat CPU 0 instructions: 870000002 cycles: 1341537947 heartbeat IPC: 0.692251 cumulative IPC: 0.599769 (Simulation time: 0 hr 41 min 51 sec) 
Heartbeat CPU 0 instructions: 880000000 cycles: 1355943368 heartbeat IPC: 0.694183 cumulative IPC: 0.600817 (Simulation time: 0 hr 42 min 20 sec) 
Heartbeat CPU 0 instructions: 890000003 cycles: 1370417761 heartbeat IPC: 0.690875 cumulative IPC: 0.60181 (Simulation time: 0 hr 42 min 49 sec) 
Heartbeat CPU 0 instructions: 900000000 cycles: 1384860696 heartbeat IPC: 0.69238 cumulative IPC: 0.602795 (Simulation time: 0 hr 43 min 17 sec) 
Heartbeat CPU 0 instructions: 910000003 cycles: 1399293057 heartbeat IPC: 0.692888 cumulative IPC: 0.603765 (Simulation time: 0 hr 43 min 46 sec) 
Heartbeat CPU 0 instructions: 920000003 cycles: 1413700390 heartbeat IPC: 0.694091 cumulative IPC: 0.604724 (Simulation time: 0 hr 44 min 15 sec) 
Heartbeat CPU 0 instructions: 930000001 cycles: 1428166560 heartbeat IPC: 0.691268 cumulative IPC: 0.605638 (Simulation time: 0 hr 44 min 44 sec) 
Heartbeat CPU 0 instructions: 940000003 cycles: 1442649995 heartbeat IPC: 0.690444 cumulative IPC: 0.606525 (Simulation time: 0 hr 45 min 12 sec) 
Heartbeat CPU 0 instructions: 950000002 cycles: 1457095217 heartbeat IPC: 0.69227 cumulative IPC: 0.60741 (Simulation time: 0 hr 45 min 41 sec) 
Heartbeat CPU 0 instructions: 960000000 cycles: 1471566671 heartbeat IPC: 0.691015 cumulative IPC: 0.608266 (Simulation time: 0 hr 46 min 10 sec) 
Heartbeat CPU 0 instructions: 970000002 cycles: 1486000538 heartbeat IPC: 0.692815 cumulative IPC: 0.60912 (Simulation time: 0 hr 46 min 39 sec) 
Heartbeat CPU 0 instructions: 980000002 cycles: 1500478627 heartbeat IPC: 0.690699 cumulative IPC: 0.609939 (Simulation time: 0 hr 47 min 7 sec) 
Heartbeat CPU 0 instructions: 990000000 cycles: 1514866345 heartbeat IPC: 0.695037 cumulative IPC: 0.610779 (Simulation time: 0 hr 47 min 36 sec) 
Heartbeat CPU 0 instructions: 1000000001 cycles: 1529283770 heartbeat IPC: 0.693605 cumulative IPC: 0.61159 (Simulation time: 0 hr 48 min 5 sec) 
Heartbeat CPU 0 instructions: 1010000001 cycles: 1543713467 heartbeat IPC: 0.693015 cumulative IPC: 0.612381 (Simulation time: 0 hr 48 min 33 sec) 
Heartbeat CPU 0 instructions: 1020000002 cycles: 1558138460 heartbeat IPC: 0.693241 cumulative IPC: 0.613158 (Simulation time: 0 hr 49 min 2 sec) 
Heartbeat CPU 0 instructions: 1030000001 cycles: 1572523617 heartbeat IPC: 0.695161 cumulative IPC: 0.613937 (Simulation time: 0 hr 49 min 31 sec) 
Heartbeat CPU 0 instructions: 1040000001 cycles: 1586972046 heartbeat IPC: 0.692117 cumulative IPC: 0.614676 (Simulation time: 0 hr 50 min 0 sec) 
Heartbeat CPU 0 instructions: 1050000000 cycles: 1601485828 heartbeat IPC: 0.689 cumulative IPC: 0.615375 (Simulation time: 0 hr 50 min 28 sec) 
Heartbeat CPU 0 instructions: 1060000003 cycles: 1615950691 heartbeat IPC: 0.691331 cumulative IPC: 0.61608 (Simulation time: 0 hr 50 min 57 sec) 
Heartbeat CPU 0 instructions: 1070000001 cycles: 1630475473 heartbeat IPC: 0.688478 cumulative IPC: 0.616748 (Simulation time: 0 hr 51 min 26 sec) 
Heartbeat CPU 0 instructions: 1080000001 cycles: 1644882831 heartbeat IPC: 0.69409 cumulative IPC: 0.61745 (Simulation time: 0 hr 51 min 54 sec) 
Heartbeat CPU 0 instructions: 1090000000 cycles: 1659277655 heartbeat IPC: 0.694694 cumulative IPC: 0.618145 (Simulation time: 0 hr 52 min 23 sec) 
Heartbeat CPU 0 instructions: 1100000000 cycles: 1673712971 heartbeat IPC: 0.692746 cumulative IPC: 0.618811 (Simulation time: 0 hr 52 min 52 sec) 
Finished CPU 0 instructions: 1000000000 cycles: 1616002445 cumulative IPC: 0.618811 (Simulation time: 0 hr 52 min 52 sec) 

ChampSim completed all CPUs

Region of Interest Statistics

CPU 0 cumulative IPC: 0.618811 instructions: 1000000000 cycles: 1616002445
L1D TOTAL     ACCESS:  450469062  HIT:  430104716  MISS:   20364346
L1D LOAD      ACCESS:  380473288  HIT:  360591449  MISS:   19881839
L1D RFO       ACCESS:   69995774  HIT:   69513267  MISS:     482507
L1D PREFETCH  ACCESS:          0  HIT:          0  MISS:          0
L1D WRITEBACK ACCESS:          0  HIT:          0  MISS:          0
L1D PREFETCH  REQUESTED:          0  ISSUED:          0  USEFUL:          0  USELESS:          0
L1D AVERAGE MISS LATENCY: 297.42 cycles
L1I TOTAL     ACCESS:  152465416  HIT:  152465328  MISS:         88
L1I LOAD      ACCESS:  152465416  HIT:  152465328  MISS:         88
L1I RFO       ACCESS:          0  HIT:          0  MISS:          0
L1I PREFETCH  ACCESS:          0  HIT:          0  MISS:          0
L1I WRITEBACK ACCESS:          0  HIT:          0  MISS:          0
L1I PREFETCH  REQUESTED:          0  ISSUED:          0  USEFUL:          0  USELESS:          0
L1I AVERAGE MISS LATENCY: 221.193 cycles
L2C TOTAL     ACCESS:   21625866  HIT:    2967640  MISS:   18658226
L2C LOAD      ACCESS:   19874884  HIT:    1633250  MISS:   18241634
L2C RFO       ACCESS:     481867  HIT:      73048  MISS:     408819
L2C PREFETCH  ACCESS:          0  HIT:          0  MISS:          0
L2C WRITEBACK ACCESS:    1269115  HIT:    1261342  MISS:       7773
L2C PREFETCH  REQUESTED:          0  ISSUED:          0  USEFUL:          0  USELESS:          0
L2C AVERAGE MISS LATENCY: 310.482 cycles
LLC TOTAL     ACCESS:   19743282  HIT:    1096356  MISS:   18646926
LLC LOAD      ACCESS:   18241634  HIT:       5718  MISS:   18235916
LLC RFO       ACCESS:     408819  HIT:          0  MISS:     408819
LLC PREFETCH  ACCESS:          0  HIT:          0  MISS:          0
LLC WRITEBACK ACCESS:    1092829  HIT:    1090638  MISS:       2191
LLC PREFETCH  REQUESTED:          0  ISSUED:          0  USEFUL:          0  USELESS:          0
LLC AVERAGE MISS LATENCY: 269.728 cycles
Major fault: 0 Minor fault: 108280

DRAM Statistics
 CHANNEL 0
 RQ ROW_BUFFER_HIT:   12381980  ROW_BUFFER_MISS:    6262754
 DBUS_CONGESTED:    1166993
 WQ ROW_BUFFER_HIT:     712927  ROW_BUFFER_MISS:     374038  FULL:          0

 AVG_CONGESTED_CYCLE: 5

CPU 0 Branch Prediction Accuracy: 85.1428% MPKI: 5.85696 Average ROB Occupancy at Mispredict: 131.094

Branch types
NOT_BRANCH: 960578062 96.0578%
BRANCH_DIRECT_JUMP: 5163018 0.516302%
BRANCH_INDIRECT: 0 0%
BRANCH_CONDITIONAL: 34258555 3.42586%
BRANCH_DIRECT_CALL: 2 2e-07%
BRANCH_INDIRECT_CALL: 0 0%
BRANCH_RETURN: 2 2e-07%
BRANCH_OTHER: 0 0%

