
*** ChampSim Multicore Out-of-Order Simulator ***

Warmup Instructions: 100000000
Simulation Instructions: 1000000000
Number of CPUs: 1
LLC sets: 2048
LLC ways: 16
Off-chip DRAM Size: 4096 MB Channels: 1 Width: 64-bit Data Rate: 3200 MT/s

CPU 0 runs /scratch/user/kevin.weston/dpc3-traces/429.champsimtrace.xz
CPU 0 Bimodal branch predictor
Initialize DRRIP state
Assign rand_sets[0]: 454  LLC: 2048
rand_sets[0]: 454
Assign rand_sets[1]: 1662  LLC: 2048
rand_sets[1]: 1662
Assign rand_sets[2]: 1921  LLC: 2048
rand_sets[2]: 1921
Assign rand_sets[3]: 1131  LLC: 2048
rand_sets[3]: 1131
Assign rand_sets[4]: 331  LLC: 2048
rand_sets[4]: 331
Assign rand_sets[5]: 1531  LLC: 2048
rand_sets[5]: 1531
Assign rand_sets[6]: 482  LLC: 2048
rand_sets[6]: 482
Assign rand_sets[7]: 1275  LLC: 2048
rand_sets[7]: 1275
Assign rand_sets[8]: 1876  LLC: 2048
rand_sets[8]: 1876
Assign rand_sets[9]: 2038  LLC: 2048
rand_sets[9]: 2038
Assign rand_sets[10]: 701  LLC: 2048
rand_sets[10]: 701
Assign rand_sets[11]: 479  LLC: 2048
rand_sets[11]: 479
Assign rand_sets[12]: 892  LLC: 2048
rand_sets[12]: 892
Assign rand_sets[13]: 1820  LLC: 2048
rand_sets[13]: 1820
Assign rand_sets[14]: 1505  LLC: 2048
rand_sets[14]: 1505
Assign rand_sets[15]: 1159  LLC: 2048
rand_sets[15]: 1159
Assign rand_sets[16]: 513  LLC: 2048
rand_sets[16]: 513
Assign rand_sets[17]: 703  LLC: 2048
rand_sets[17]: 703
Assign rand_sets[18]: 561  LLC: 2048
rand_sets[18]: 561
Assign rand_sets[19]: 990  LLC: 2048
rand_sets[19]: 990
Assign rand_sets[20]: 342  LLC: 2048
rand_sets[20]: 342
Assign rand_sets[21]: 882  LLC: 2048
rand_sets[21]: 882
Assign rand_sets[22]: 15  LLC: 2048
rand_sets[22]: 15
Assign rand_sets[23]: 71  LLC: 2048
rand_sets[23]: 71
Assign rand_sets[24]: 1127  LLC: 2048
rand_sets[24]: 1127
Assign rand_sets[25]: 1382  LLC: 2048
rand_sets[25]: 1382
Assign rand_sets[26]: 647  LLC: 2048
rand_sets[26]: 647
Assign rand_sets[27]: 857  LLC: 2048
rand_sets[27]: 857
Assign rand_sets[28]: 1450  LLC: 2048
rand_sets[28]: 1450
Assign rand_sets[29]: 1160  LLC: 2048
rand_sets[29]: 1160
Assign rand_sets[30]: 1852  LLC: 2048
rand_sets[30]: 1852
Assign rand_sets[31]: 1881  LLC: 2048
rand_sets[31]: 1881
Assign rand_sets[32]: 1770  LLC: 2048
rand_sets[32]: 1770
Assign rand_sets[33]: 1622  LLC: 2048
rand_sets[33]: 1622
Assign rand_sets[34]: 275  LLC: 2048
rand_sets[34]: 275
Assign rand_sets[35]: 635  LLC: 2048
rand_sets[35]: 635
Assign rand_sets[36]: 466  LLC: 2048
rand_sets[36]: 466
Assign rand_sets[37]: 1413  LLC: 2048
rand_sets[37]: 1413
Assign rand_sets[38]: 417  LLC: 2048
rand_sets[38]: 417
Assign rand_sets[39]: 472  LLC: 2048
rand_sets[39]: 472
Assign rand_sets[40]: 1340  LLC: 2048
rand_sets[40]: 1340
Assign rand_sets[41]: 852  LLC: 2048
rand_sets[41]: 852
Assign rand_sets[42]: 1365  LLC: 2048
rand_sets[42]: 1365
Assign rand_sets[43]: 47  LLC: 2048
rand_sets[43]: 47
Assign rand_sets[44]: 823  LLC: 2048
rand_sets[44]: 823
Assign rand_sets[45]: 686  LLC: 2048
rand_sets[45]: 686
Assign rand_sets[46]: 1637  LLC: 2048
rand_sets[46]: 1637
Assign rand_sets[47]: 1115  LLC: 2048
rand_sets[47]: 1115
Assign rand_sets[48]: 986  LLC: 2048
rand_sets[48]: 986
Assign rand_sets[49]: 258  LLC: 2048
rand_sets[49]: 258
Assign rand_sets[50]: 633  LLC: 2048
rand_sets[50]: 633
Assign rand_sets[51]: 920  LLC: 2048
rand_sets[51]: 920
Assign rand_sets[52]: 204  LLC: 2048
rand_sets[52]: 204
Assign rand_sets[53]: 227  LLC: 2048
rand_sets[53]: 227
Assign rand_sets[54]: 1818  LLC: 2048
rand_sets[54]: 1818
Assign rand_sets[55]: 886  LLC: 2048
rand_sets[55]: 886
Assign rand_sets[56]: 1422  LLC: 2048
rand_sets[56]: 1422
Assign rand_sets[57]: 607  LLC: 2048
rand_sets[57]: 607
Assign rand_sets[58]: 217  LLC: 2048
rand_sets[58]: 217
Assign rand_sets[59]: 1945  LLC: 2048
rand_sets[59]: 1945
Assign rand_sets[60]: 143  LLC: 2048
rand_sets[60]: 143
Assign rand_sets[61]: 1311  LLC: 2048
rand_sets[61]: 1311
Assign rand_sets[62]: 319  LLC: 2048
rand_sets[62]: 319
Assign rand_sets[63]: 1846  LLC: 2048
rand_sets[63]: 1846
Heartbeat CPU 0 instructions: 10000002 cycles: 3654969 heartbeat IPC: 2.736 cumulative IPC: 2.736 (Simulation time: 0 hr 0 min 23 sec) 
Heartbeat CPU 0 instructions: 20000000 cycles: 7582013 heartbeat IPC: 2.54644 cumulative IPC: 2.63782 (Simulation time: 0 hr 0 min 47 sec) 
Heartbeat CPU 0 instructions: 30000003 cycles: 11195561 heartbeat IPC: 2.76736 cumulative IPC: 2.67963 (Simulation time: 0 hr 1 min 10 sec) 
Heartbeat CPU 0 instructions: 40000001 cycles: 14810293 heartbeat IPC: 2.76646 cumulative IPC: 2.70082 (Simulation time: 0 hr 1 min 33 sec) 
Heartbeat CPU 0 instructions: 50000002 cycles: 18426298 heartbeat IPC: 2.76548 cumulative IPC: 2.71351 (Simulation time: 0 hr 1 min 57 sec) 
Heartbeat CPU 0 instructions: 60000000 cycles: 22230000 heartbeat IPC: 2.62902 cumulative IPC: 2.69906 (Simulation time: 0 hr 2 min 21 sec) 
Heartbeat CPU 0 instructions: 70000003 cycles: 25908785 heartbeat IPC: 2.71829 cumulative IPC: 2.70179 (Simulation time: 0 hr 2 min 45 sec) 
Heartbeat CPU 0 instructions: 80000003 cycles: 29747037 heartbeat IPC: 2.60535 cumulative IPC: 2.68934 (Simulation time: 0 hr 3 min 9 sec) 
Heartbeat CPU 0 instructions: 90000000 cycles: 33548077 heartbeat IPC: 2.63086 cumulative IPC: 2.68272 (Simulation time: 0 hr 3 min 32 sec) 
Heartbeat CPU 0 instructions: 100000002 cycles: 37318092 heartbeat IPC: 2.65251 cumulative IPC: 2.67967 (Simulation time: 0 hr 3 min 56 sec) 

Warmup complete CPU 0 instructions: 100000002 cycles: 37318092 (Simulation time: 0 hr 3 min 56 sec) 

Heartbeat CPU 0 instructions: 110000000 cycles: 74135792 heartbeat IPC: 0.271608 cumulative IPC: 0.271608 (Simulation time: 0 hr 4 min 29 sec) 
Heartbeat CPU 0 instructions: 120000001 cycles: 102956662 heartbeat IPC: 0.346971 cumulative IPC: 0.304699 (Simulation time: 0 hr 4 min 58 sec) 
Heartbeat CPU 0 instructions: 130000000 cycles: 145850021 heartbeat IPC: 0.233136 cumulative IPC: 0.276416 (Simulation time: 0 hr 5 min 34 sec) 
Heartbeat CPU 0 instructions: 140000002 cycles: 177675045 heartbeat IPC: 0.314218 cumulative IPC: 0.284988 (Simulation time: 0 hr 6 min 9 sec) 
Heartbeat CPU 0 instructions: 150000003 cycles: 212102430 heartbeat IPC: 0.290466 cumulative IPC: 0.286067 (Simulation time: 0 hr 6 min 44 sec) 
Heartbeat CPU 0 instructions: 160000002 cycles: 249458697 heartbeat IPC: 0.267693 cumulative IPC: 0.282831 (Simulation time: 0 hr 7 min 17 sec) 
Heartbeat CPU 0 instructions: 170000001 cycles: 272131914 heartbeat IPC: 0.441049 cumulative IPC: 0.298109 (Simulation time: 0 hr 7 min 48 sec) 
Heartbeat CPU 0 instructions: 180000000 cycles: 295578582 heartbeat IPC: 0.4265 cumulative IPC: 0.309765 (Simulation time: 0 hr 8 min 18 sec) 
Heartbeat CPU 0 instructions: 190000001 cycles: 328879784 heartbeat IPC: 0.300289 cumulative IPC: 0.308683 (Simulation time: 0 hr 8 min 53 sec) 
Heartbeat CPU 0 instructions: 200000001 cycles: 349624339 heartbeat IPC: 0.482054 cumulative IPC: 0.320199 (Simulation time: 0 hr 9 min 23 sec) 
Heartbeat CPU 0 instructions: 210000003 cycles: 378969711 heartbeat IPC: 0.340769 cumulative IPC: 0.321965 (Simulation time: 0 hr 9 min 53 sec) 
Heartbeat CPU 0 instructions: 220000000 cycles: 415354221 heartbeat IPC: 0.274842 cumulative IPC: 0.31743 (Simulation time: 0 hr 10 min 26 sec) 
Heartbeat CPU 0 instructions: 230000003 cycles: 462192992 heartbeat IPC: 0.213498 cumulative IPC: 0.305972 (Simulation time: 0 hr 10 min 58 sec) 
Heartbeat CPU 0 instructions: 240000003 cycles: 503876888 heartbeat IPC: 0.239901 cumulative IPC: 0.300069 (Simulation time: 0 hr 11 min 34 sec) 
Heartbeat CPU 0 instructions: 250000000 cycles: 543058247 heartbeat IPC: 0.255223 cumulative IPC: 0.296595 (Simulation time: 0 hr 12 min 8 sec) 
Heartbeat CPU 0 instructions: 260000002 cycles: 570608423 heartbeat IPC: 0.362974 cumulative IPC: 0.300024 (Simulation time: 0 hr 12 min 37 sec) 
Heartbeat CPU 0 instructions: 270000002 cycles: 593219278 heartbeat IPC: 0.442265 cumulative IPC: 0.30581 (Simulation time: 0 hr 13 min 8 sec) 
Heartbeat CPU 0 instructions: 280000000 cycles: 620107071 heartbeat IPC: 0.371916 cumulative IPC: 0.30886 (Simulation time: 0 hr 13 min 36 sec) 
Heartbeat CPU 0 instructions: 290000001 cycles: 651777297 heartbeat IPC: 0.315754 cumulative IPC: 0.309215 (Simulation time: 0 hr 14 min 8 sec) 
Heartbeat CPU 0 instructions: 300000001 cycles: 685993863 heartbeat IPC: 0.292256 cumulative IPC: 0.30832 (Simulation time: 0 hr 14 min 44 sec) 
Heartbeat CPU 0 instructions: 310000002 cycles: 721159102 heartbeat IPC: 0.284372 cumulative IPC: 0.307089 (Simulation time: 0 hr 15 min 19 sec) 
Heartbeat CPU 0 instructions: 320000000 cycles: 764987129 heartbeat IPC: 0.228164 cumulative IPC: 0.302335 (Simulation time: 0 hr 15 min 52 sec) 
Heartbeat CPU 0 instructions: 330000000 cycles: 786696565 heartbeat IPC: 0.460629 cumulative IPC: 0.306921 (Simulation time: 0 hr 16 min 22 sec) 
Heartbeat CPU 0 instructions: 340000002 cycles: 820430763 heartbeat IPC: 0.296435 cumulative IPC: 0.306469 (Simulation time: 0 hr 16 min 53 sec) 
Heartbeat CPU 0 instructions: 350000003 cycles: 860266087 heartbeat IPC: 0.251034 cumulative IPC: 0.303786 (Simulation time: 0 hr 17 min 25 sec) 
Heartbeat CPU 0 instructions: 360000002 cycles: 890439276 heartbeat IPC: 0.33142 cumulative IPC: 0.304763 (Simulation time: 0 hr 17 min 55 sec) 
Heartbeat CPU 0 instructions: 370000001 cycles: 937984124 heartbeat IPC: 0.210328 cumulative IPC: 0.299778 (Simulation time: 0 hr 18 min 32 sec) 
Heartbeat CPU 0 instructions: 380000002 cycles: 961732999 heartbeat IPC: 0.421073 cumulative IPC: 0.302894 (Simulation time: 0 hr 19 min 3 sec) 
Heartbeat CPU 0 instructions: 390000001 cycles: 1005126524 heartbeat IPC: 0.230449 cumulative IPC: 0.299646 (Simulation time: 0 hr 19 min 39 sec) 
Heartbeat CPU 0 instructions: 400000000 cycles: 1045426332 heartbeat IPC: 0.24814 cumulative IPC: 0.297587 (Simulation time: 0 hr 20 min 13 sec) 
Heartbeat CPU 0 instructions: 410000001 cycles: 1072245718 heartbeat IPC: 0.372865 cumulative IPC: 0.299538 (Simulation time: 0 hr 20 min 45 sec) 
Heartbeat CPU 0 instructions: 420000003 cycles: 1103629012 heartbeat IPC: 0.318641 cumulative IPC: 0.3001 (Simulation time: 0 hr 21 min 18 sec) 
Heartbeat CPU 0 instructions: 430000002 cycles: 1131038121 heartbeat IPC: 0.364842 cumulative IPC: 0.301723 (Simulation time: 0 hr 21 min 49 sec) 
Heartbeat CPU 0 instructions: 440000000 cycles: 1153053058 heartbeat IPC: 0.454237 cumulative IPC: 0.304732 (Simulation time: 0 hr 22 min 19 sec) 
Heartbeat CPU 0 instructions: 450000001 cycles: 1178256913 heartbeat IPC: 0.396765 cumulative IPC: 0.306765 (Simulation time: 0 hr 22 min 48 sec) 
Heartbeat CPU 0 instructions: 460000000 cycles: 1217984702 heartbeat IPC: 0.251713 cumulative IPC: 0.304912 (Simulation time: 0 hr 23 min 17 sec) 
Heartbeat CPU 0 instructions: 470000000 cycles: 1245864142 heartbeat IPC: 0.358687 cumulative IPC: 0.306153 (Simulation time: 0 hr 23 min 50 sec) 
Heartbeat CPU 0 instructions: 480000000 cycles: 1278592054 heartbeat IPC: 0.30555 cumulative IPC: 0.306137 (Simulation time: 0 hr 24 min 28 sec) 
Heartbeat CPU 0 instructions: 490000001 cycles: 1304849517 heartbeat IPC: 0.380844 cumulative IPC: 0.307685 (Simulation time: 0 hr 24 min 57 sec) 
Heartbeat CPU 0 instructions: 500000000 cycles: 1350874411 heartbeat IPC: 0.217274 cumulative IPC: 0.304517 (Simulation time: 0 hr 25 min 33 sec) 
Heartbeat CPU 0 instructions: 510000001 cycles: 1385702543 heartbeat IPC: 0.287124 cumulative IPC: 0.304068 (Simulation time: 0 hr 26 min 6 sec) 
Heartbeat CPU 0 instructions: 520000002 cycles: 1416242884 heartbeat IPC: 0.327436 cumulative IPC: 0.304585 (Simulation time: 0 hr 26 min 38 sec) 
Heartbeat CPU 0 instructions: 530000000 cycles: 1454406378 heartbeat IPC: 0.26203 cumulative IPC: 0.303439 (Simulation time: 0 hr 27 min 14 sec) 
Heartbeat CPU 0 instructions: 540000000 cycles: 1486080049 heartbeat IPC: 0.31572 cumulative IPC: 0.303708 (Simulation time: 0 hr 27 min 48 sec) 
Heartbeat CPU 0 instructions: 550000000 cycles: 1527980303 heartbeat IPC: 0.238662 cumulative IPC: 0.301879 (Simulation time: 0 hr 28 min 26 sec) 
Heartbeat CPU 0 instructions: 560000003 cycles: 1574949443 heartbeat IPC: 0.212906 cumulative IPC: 0.299161 (Simulation time: 0 hr 29 min 3 sec) 
Heartbeat CPU 0 instructions: 570000000 cycles: 1612184719 heartbeat IPC: 0.268562 cumulative IPC: 0.298438 (Simulation time: 0 hr 29 min 36 sec) 
Heartbeat CPU 0 instructions: 580000003 cycles: 1646202145 heartbeat IPC: 0.293967 cumulative IPC: 0.298343 (Simulation time: 0 hr 30 min 9 sec) 
Heartbeat CPU 0 instructions: 590000000 cycles: 1682896979 heartbeat IPC: 0.272518 cumulative IPC: 0.297768 (Simulation time: 0 hr 30 min 43 sec) 
Heartbeat CPU 0 instructions: 600000000 cycles: 1706384405 heartbeat IPC: 0.42576 cumulative IPC: 0.299569 (Simulation time: 0 hr 31 min 13 sec) 
Heartbeat CPU 0 instructions: 610000003 cycles: 1734035704 heartbeat IPC: 0.361647 cumulative IPC: 0.30058 (Simulation time: 0 hr 31 min 43 sec) 
Heartbeat CPU 0 instructions: 620000000 cycles: 1762313064 heartbeat IPC: 0.35364 cumulative IPC: 0.30145 (Simulation time: 0 hr 32 min 14 sec) 
Heartbeat CPU 0 instructions: 630000003 cycles: 1811169546 heartbeat IPC: 0.204681 cumulative IPC: 0.298785 (Simulation time: 0 hr 32 min 53 sec) 
Heartbeat CPU 0 instructions: 640000000 cycles: 1840016974 heartbeat IPC: 0.346651 cumulative IPC: 0.299551 (Simulation time: 0 hr 33 min 26 sec) 
Heartbeat CPU 0 instructions: 650000001 cycles: 1890232740 heartbeat IPC: 0.199141 cumulative IPC: 0.29683 (Simulation time: 0 hr 34 min 2 sec) 
Heartbeat CPU 0 instructions: 660000000 cycles: 1920112946 heartbeat IPC: 0.33467 cumulative IPC: 0.29743 (Simulation time: 0 hr 34 min 32 sec) 
Heartbeat CPU 0 instructions: 670000002 cycles: 1948162781 heartbeat IPC: 0.356508 cumulative IPC: 0.298297 (Simulation time: 0 hr 35 min 2 sec) 
Heartbeat CPU 0 instructions: 680000000 cycles: 1979933557 heartbeat IPC: 0.314755 cumulative IPC: 0.298567 (Simulation time: 0 hr 35 min 36 sec) 
Heartbeat CPU 0 instructions: 690000002 cycles: 2018073696 heartbeat IPC: 0.262191 cumulative IPC: 0.297866 (Simulation time: 0 hr 36 min 6 sec) 
Heartbeat CPU 0 instructions: 700000000 cycles: 2051168988 heartbeat IPC: 0.302158 cumulative IPC: 0.297937 (Simulation time: 0 hr 36 min 40 sec) 
Heartbeat CPU 0 instructions: 710000003 cycles: 2079269954 heartbeat IPC: 0.35586 cumulative IPC: 0.298734 (Simulation time: 0 hr 37 min 15 sec) 
Heartbeat CPU 0 instructions: 720000001 cycles: 2118521782 heartbeat IPC: 0.254765 cumulative IPC: 0.297905 (Simulation time: 0 hr 37 min 52 sec) 
Heartbeat CPU 0 instructions: 730000003 cycles: 2149212247 heartbeat IPC: 0.325834 cumulative IPC: 0.29831 (Simulation time: 0 hr 38 min 25 sec) 
Heartbeat CPU 0 instructions: 740000001 cycles: 2175936899 heartbeat IPC: 0.374186 cumulative IPC: 0.299259 (Simulation time: 0 hr 38 min 57 sec) 
Heartbeat CPU 0 instructions: 750000003 cycles: 2198892227 heartbeat IPC: 0.435629 cumulative IPC: 0.300707 (Simulation time: 0 hr 39 min 27 sec) 
Heartbeat CPU 0 instructions: 760000003 cycles: 2232843207 heartbeat IPC: 0.294542 cumulative IPC: 0.300611 (Simulation time: 0 hr 39 min 57 sec) 
Heartbeat CPU 0 instructions: 770000000 cycles: 2281714854 heartbeat IPC: 0.204618 cumulative IPC: 0.298521 (Simulation time: 0 hr 40 min 31 sec) 
Heartbeat CPU 0 instructions: 780000000 cycles: 2311650121 heartbeat IPC: 0.334054 cumulative IPC: 0.298989 (Simulation time: 0 hr 41 min 5 sec) 
Heartbeat CPU 0 instructions: 790000000 cycles: 2349436712 heartbeat IPC: 0.264644 cumulative IPC: 0.298428 (Simulation time: 0 hr 41 min 41 sec) 
Heartbeat CPU 0 instructions: 800000002 cycles: 2387008903 heartbeat IPC: 0.266154 cumulative IPC: 0.297912 (Simulation time: 0 hr 42 min 16 sec) 
Heartbeat CPU 0 instructions: 810000003 cycles: 2428783205 heartbeat IPC: 0.239382 cumulative IPC: 0.296889 (Simulation time: 0 hr 42 min 47 sec) 
Heartbeat CPU 0 instructions: 820000002 cycles: 2453166637 heartbeat IPC: 0.410114 cumulative IPC: 0.298032 (Simulation time: 0 hr 43 min 16 sec) 
Heartbeat CPU 0 instructions: 830000002 cycles: 2474645748 heartbeat IPC: 0.465569 cumulative IPC: 0.299508 (Simulation time: 0 hr 43 min 47 sec) 
Heartbeat CPU 0 instructions: 840000002 cycles: 2510226682 heartbeat IPC: 0.281049 cumulative IPC: 0.299243 (Simulation time: 0 hr 44 min 21 sec) 
Heartbeat CPU 0 instructions: 850000001 cycles: 2538340900 heartbeat IPC: 0.355692 cumulative IPC: 0.299877 (Simulation time: 0 hr 44 min 54 sec) 
Heartbeat CPU 0 instructions: 860000001 cycles: 2575412802 heartbeat IPC: 0.269746 cumulative IPC: 0.299437 (Simulation time: 0 hr 45 min 27 sec) 
Heartbeat CPU 0 instructions: 870000000 cycles: 2603747787 heartbeat IPC: 0.352921 cumulative IPC: 0.300028 (Simulation time: 0 hr 45 min 58 sec) 
Heartbeat CPU 0 instructions: 880000000 cycles: 2640907580 heartbeat IPC: 0.269108 cumulative IPC: 0.299586 (Simulation time: 0 hr 46 min 36 sec) 
Heartbeat CPU 0 instructions: 890000000 cycles: 2673629209 heartbeat IPC: 0.305608 cumulative IPC: 0.299661 (Simulation time: 0 hr 47 min 10 sec) 
Heartbeat CPU 0 instructions: 900000001 cycles: 2703359062 heartbeat IPC: 0.336362 cumulative IPC: 0.30007 (Simulation time: 0 hr 47 min 43 sec) 
Heartbeat CPU 0 instructions: 910000002 cycles: 2726819570 heartbeat IPC: 0.426248 cumulative IPC: 0.301171 (Simulation time: 0 hr 48 min 15 sec) 
Heartbeat CPU 0 instructions: 920000001 cycles: 2754851547 heartbeat IPC: 0.356735 cumulative IPC: 0.301744 (Simulation time: 0 hr 48 min 46 sec) 
Heartbeat CPU 0 instructions: 930000000 cycles: 2786781644 heartbeat IPC: 0.313184 cumulative IPC: 0.301877 (Simulation time: 0 hr 49 min 16 sec) 
Heartbeat CPU 0 instructions: 940000001 cycles: 2813902551 heartbeat IPC: 0.368719 cumulative IPC: 0.30253 (Simulation time: 0 hr 49 min 48 sec) 
Heartbeat CPU 0 instructions: 950000003 cycles: 2846797387 heartbeat IPC: 0.303999 cumulative IPC: 0.302547 (Simulation time: 0 hr 50 min 26 sec) 
Heartbeat CPU 0 instructions: 960000001 cycles: 2871107391 heartbeat IPC: 0.411353 cumulative IPC: 0.303481 (Simulation time: 0 hr 50 min 59 sec) 
Heartbeat CPU 0 instructions: 970000002 cycles: 2905153346 heartbeat IPC: 0.293721 cumulative IPC: 0.303365 (Simulation time: 0 hr 51 min 30 sec) 
Heartbeat CPU 0 instructions: 980000002 cycles: 2929970801 heartbeat IPC: 0.402942 cumulative IPC: 0.304219 (Simulation time: 0 hr 52 min 1 sec) 
Heartbeat CPU 0 instructions: 990000000 cycles: 2952912651 heartbeat IPC: 0.435885 cumulative IPC: 0.305255 (Simulation time: 0 hr 52 min 33 sec) 
Heartbeat CPU 0 instructions: 1000000002 cycles: 2993460841 heartbeat IPC: 0.24662 cumulative IPC: 0.304451 (Simulation time: 0 hr 53 min 5 sec) 
Heartbeat CPU 0 instructions: 1010000000 cycles: 3020713470 heartbeat IPC: 0.366937 cumulative IPC: 0.305022 (Simulation time: 0 hr 53 min 38 sec) 
Heartbeat CPU 0 instructions: 1020000002 cycles: 3050665325 heartbeat IPC: 0.333869 cumulative IPC: 0.305308 (Simulation time: 0 hr 54 min 10 sec) 
Heartbeat CPU 0 instructions: 1030000002 cycles: 3102004075 heartbeat IPC: 0.194785 cumulative IPC: 0.303457 (Simulation time: 0 hr 54 min 46 sec) 
Heartbeat CPU 0 instructions: 1040000000 cycles: 3135147398 heartbeat IPC: 0.30172 cumulative IPC: 0.303438 (Simulation time: 0 hr 55 min 20 sec) 
Heartbeat CPU 0 instructions: 1050000001 cycles: 3165608231 heartbeat IPC: 0.32829 cumulative IPC: 0.30368 (Simulation time: 0 hr 55 min 52 sec) 
Heartbeat CPU 0 instructions: 1060000002 cycles: 3195582815 heartbeat IPC: 0.333616 cumulative IPC: 0.303964 (Simulation time: 0 hr 56 min 20 sec) 
Heartbeat CPU 0 instructions: 1070000001 cycles: 3217895550 heartbeat IPC: 0.448175 cumulative IPC: 0.304976 (Simulation time: 0 hr 56 min 52 sec) 
Heartbeat CPU 0 instructions: 1080000001 cycles: 3251741368 heartbeat IPC: 0.295457 cumulative IPC: 0.304876 (Simulation time: 0 hr 57 min 22 sec) 
Heartbeat CPU 0 instructions: 1090000002 cycles: 3294459564 heartbeat IPC: 0.234092 cumulative IPC: 0.303948 (Simulation time: 0 hr 57 min 55 sec) 
Heartbeat CPU 0 instructions: 1100000000 cycles: 3334788521 heartbeat IPC: 0.247961 cumulative IPC: 0.303263 (Simulation time: 0 hr 58 min 29 sec) 
Finished CPU 0 instructions: 1000000000 cycles: 3297470571 cumulative IPC: 0.303263 (Simulation time: 0 hr 58 min 29 sec) 

ChampSim completed all CPUs

Region of Interest Statistics

CPU 0 cumulative IPC: 0.303263 instructions: 1000000000 cycles: 3297470571
L1D TOTAL     ACCESS:  363222585  HIT:  332743575  MISS:   30479010
L1D LOAD      ACCESS:  139544942  HIT:  109072109  MISS:   30472833
L1D RFO       ACCESS:  223677643  HIT:  223671466  MISS:       6177
L1D PREFETCH  ACCESS:          0  HIT:          0  MISS:          0
L1D WRITEBACK ACCESS:          0  HIT:          0  MISS:          0
L1D PREFETCH  REQUESTED:          0  ISSUED:          0  USEFUL:          0  USELESS:          0
L1D AVERAGE MISS LATENCY: 232.163 cycles
L1I TOTAL     ACCESS:  185296176  HIT:  185296176  MISS:          0
L1I LOAD      ACCESS:  185296176  HIT:  185296176  MISS:          0
L1I RFO       ACCESS:          0  HIT:          0  MISS:          0
L1I PREFETCH  ACCESS:          0  HIT:          0  MISS:          0
L1I WRITEBACK ACCESS:          0  HIT:          0  MISS:          0
L1I PREFETCH  REQUESTED:          0  ISSUED:          0  USEFUL:          0  USELESS:          0
L1I AVERAGE MISS LATENCY: -nan cycles
L2C TOTAL     ACCESS:   43857649  HIT:   14161588  MISS:   29696061
L2C LOAD      ACCESS:   30468965  HIT:     806939  MISS:   29662026
L2C RFO       ACCESS:       6177  HIT:       5466  MISS:        711
L2C PREFETCH  ACCESS:          0  HIT:          0  MISS:          0
L2C WRITEBACK ACCESS:   13382507  HIT:   13349183  MISS:      33324
L2C PREFETCH  REQUESTED:          0  ISSUED:          0  USEFUL:          0  USELESS:          0
L2C AVERAGE MISS LATENCY: 214.885 cycles
LLC TOTAL     ACCESS:   42437187  HIT:    2931481  MISS:   39505706
LLC LOAD      ACCESS:   29661944  HIT:    1373959  MISS:   28287985
LLC RFO       ACCESS:        711  HIT:        429  MISS:        282
LLC PREFETCH  ACCESS:          0  HIT:          0  MISS:          0
LLC WRITEBACK ACCESS:   12774532  HIT:    1557093  MISS:   11217439
LLC PREFETCH  REQUESTED:          0  ISSUED:          0  USEFUL:          0  USELESS:          0
LLC AVERAGE MISS LATENCY: 129.653 cycles
Major fault: 0 Minor fault: 389068

DRAM Statistics
 CHANNEL 0
 RQ ROW_BUFFER_HIT:    6006235  ROW_BUFFER_MISS:   22281985
 DBUS_CONGESTED:   16367623
 WQ ROW_BUFFER_HIT:    3989004  ROW_BUFFER_MISS:    8306479  FULL:          0

 AVG_CONGESTED_CYCLE: 6

CPU 0 Branch Prediction Accuracy: 96.6969% MPKI: 2.99068 Average ROB Occupancy at Mispredict: 89.8954

Branch types
NOT_BRANCH: 909457762 90.9458%
BRANCH_DIRECT_JUMP: 2039619 0.203962%
BRANCH_INDIRECT: 0 0%
BRANCH_CONDITIONAL: 86463194 8.64632%
BRANCH_DIRECT_CALL: 1019527 0.101953%
BRANCH_INDIRECT_CALL: 0 0%
BRANCH_RETURN: 1019528 0.101953%
BRANCH_OTHER: 0 0%

