
*** ChampSim Multicore Out-of-Order Simulator ***

Warmup Instructions: 100000000
Simulation Instructions: 1000000000
Number of CPUs: 1
LLC sets: 2048
LLC ways: 16
Off-chip DRAM Size: 4096 MB Channels: 1 Width: 64-bit Data Rate: 3200 MT/s

CPU 0 runs /scratch/user/kevin.weston/dpc3-traces/429.champsimtrace.xz
CPU 0 Bimodal branch predictor
Heartbeat CPU 0 instructions: 10000002 cycles: 3654951 heartbeat IPC: 2.73602 cumulative IPC: 2.73602 (Simulation time: 0 hr 0 min 24 sec) 
Heartbeat CPU 0 instructions: 20000000 cycles: 7581635 heartbeat IPC: 2.54668 cumulative IPC: 2.63795 (Simulation time: 0 hr 0 min 48 sec) 
Heartbeat CPU 0 instructions: 30000003 cycles: 11195182 heartbeat IPC: 2.76736 cumulative IPC: 2.67972 (Simulation time: 0 hr 1 min 11 sec) 
Heartbeat CPU 0 instructions: 40000001 cycles: 14809903 heartbeat IPC: 2.76646 cumulative IPC: 2.7009 (Simulation time: 0 hr 1 min 35 sec) 
Heartbeat CPU 0 instructions: 50000002 cycles: 18425945 heartbeat IPC: 2.76545 cumulative IPC: 2.71357 (Simulation time: 0 hr 1 min 59 sec) 
Heartbeat CPU 0 instructions: 60000000 cycles: 22229550 heartbeat IPC: 2.62908 cumulative IPC: 2.69911 (Simulation time: 0 hr 2 min 23 sec) 
Heartbeat CPU 0 instructions: 70000003 cycles: 25908360 heartbeat IPC: 2.71827 cumulative IPC: 2.70183 (Simulation time: 0 hr 2 min 47 sec) 
Heartbeat CPU 0 instructions: 80000003 cycles: 29746204 heartbeat IPC: 2.60563 cumulative IPC: 2.68942 (Simulation time: 0 hr 3 min 11 sec) 
Heartbeat CPU 0 instructions: 90000000 cycles: 33546895 heartbeat IPC: 2.6311 cumulative IPC: 2.68281 (Simulation time: 0 hr 3 min 35 sec) 
Heartbeat CPU 0 instructions: 100000002 cycles: 37316853 heartbeat IPC: 2.65255 cumulative IPC: 2.67975 (Simulation time: 0 hr 3 min 59 sec) 

Warmup complete CPU 0 instructions: 100000002 cycles: 37316853 (Simulation time: 0 hr 3 min 59 sec) 

Heartbeat CPU 0 instructions: 110000000 cycles: 73830691 heartbeat IPC: 0.273869 cumulative IPC: 0.273869 (Simulation time: 0 hr 4 min 32 sec) 
Heartbeat CPU 0 instructions: 120000001 cycles: 104237298 heartbeat IPC: 0.328876 cumulative IPC: 0.298862 (Simulation time: 0 hr 5 min 2 sec) 
Heartbeat CPU 0 instructions: 130000000 cycles: 149153157 heartbeat IPC: 0.222638 cumulative IPC: 0.268249 (Simulation time: 0 hr 5 min 39 sec) 
Heartbeat CPU 0 instructions: 140000002 cycles: 181303560 heartbeat IPC: 0.311038 cumulative IPC: 0.277803 (Simulation time: 0 hr 6 min 14 sec) 
Heartbeat CPU 0 instructions: 150000003 cycles: 216344459 heartbeat IPC: 0.285381 cumulative IPC: 0.279287 (Simulation time: 0 hr 6 min 49 sec) 
Heartbeat CPU 0 instructions: 160000002 cycles: 254303652 heartbeat IPC: 0.263441 cumulative IPC: 0.276515 (Simulation time: 0 hr 7 min 22 sec) 
Heartbeat CPU 0 instructions: 170000001 cycles: 277232759 heartbeat IPC: 0.436127 cumulative IPC: 0.291769 (Simulation time: 0 hr 7 min 54 sec) 
Heartbeat CPU 0 instructions: 180000000 cycles: 300935913 heartbeat IPC: 0.421885 cumulative IPC: 0.303468 (Simulation time: 0 hr 8 min 25 sec) 
Heartbeat CPU 0 instructions: 190000001 cycles: 334831348 heartbeat IPC: 0.295025 cumulative IPC: 0.302506 (Simulation time: 0 hr 8 min 59 sec) 
Heartbeat CPU 0 instructions: 200000001 cycles: 355780926 heartbeat IPC: 0.477337 cumulative IPC: 0.314007 (Simulation time: 0 hr 9 min 30 sec) 
Heartbeat CPU 0 instructions: 210000003 cycles: 385477000 heartbeat IPC: 0.336745 cumulative IPC: 0.315947 (Simulation time: 0 hr 9 min 59 sec) 
Heartbeat CPU 0 instructions: 220000000 cycles: 422481269 heartbeat IPC: 0.270239 cumulative IPC: 0.311555 (Simulation time: 0 hr 10 min 33 sec) 
Heartbeat CPU 0 instructions: 230000003 cycles: 470974510 heartbeat IPC: 0.206214 cumulative IPC: 0.299776 (Simulation time: 0 hr 11 min 6 sec) 
Heartbeat CPU 0 instructions: 240000003 cycles: 515524418 heartbeat IPC: 0.224467 cumulative IPC: 0.29276 (Simulation time: 0 hr 11 min 43 sec) 
Heartbeat CPU 0 instructions: 250000000 cycles: 556147079 heartbeat IPC: 0.246168 cumulative IPC: 0.289112 (Simulation time: 0 hr 12 min 17 sec) 
Heartbeat CPU 0 instructions: 260000002 cycles: 584283306 heartbeat IPC: 0.355414 cumulative IPC: 0.292523 (Simulation time: 0 hr 12 min 47 sec) 
Heartbeat CPU 0 instructions: 270000002 cycles: 607176138 heartbeat IPC: 0.436818 cumulative IPC: 0.298319 (Simulation time: 0 hr 13 min 18 sec) 
Heartbeat CPU 0 instructions: 280000000 cycles: 634399451 heartbeat IPC: 0.367332 cumulative IPC: 0.301466 (Simulation time: 0 hr 13 min 47 sec) 
Heartbeat CPU 0 instructions: 290000001 cycles: 666844308 heartbeat IPC: 0.308215 cumulative IPC: 0.301814 (Simulation time: 0 hr 14 min 19 sec) 
Heartbeat CPU 0 instructions: 300000001 cycles: 701884012 heartbeat IPC: 0.285391 cumulative IPC: 0.300948 (Simulation time: 0 hr 14 min 55 sec) 
Heartbeat CPU 0 instructions: 310000002 cycles: 737936041 heartbeat IPC: 0.277377 cumulative IPC: 0.299735 (Simulation time: 0 hr 15 min 31 sec) 
Heartbeat CPU 0 instructions: 320000000 cycles: 783151818 heartbeat IPC: 0.221162 cumulative IPC: 0.294971 (Simulation time: 0 hr 16 min 5 sec) 
Heartbeat CPU 0 instructions: 330000000 cycles: 805379899 heartbeat IPC: 0.449881 cumulative IPC: 0.299455 (Simulation time: 0 hr 16 min 35 sec) 
Heartbeat CPU 0 instructions: 340000002 cycles: 840304664 heartbeat IPC: 0.28633 cumulative IPC: 0.298884 (Simulation time: 0 hr 17 min 6 sec) 
Heartbeat CPU 0 instructions: 350000003 cycles: 882662249 heartbeat IPC: 0.236085 cumulative IPC: 0.295737 (Simulation time: 0 hr 17 min 40 sec) 
Heartbeat CPU 0 instructions: 360000002 cycles: 914339717 heartbeat IPC: 0.315682 cumulative IPC: 0.296457 (Simulation time: 0 hr 18 min 10 sec) 
Heartbeat CPU 0 instructions: 370000001 cycles: 963837335 heartbeat IPC: 0.20203 cumulative IPC: 0.291413 (Simulation time: 0 hr 18 min 48 sec) 
Heartbeat CPU 0 instructions: 380000002 cycles: 988003920 heartbeat IPC: 0.413795 cumulative IPC: 0.294524 (Simulation time: 0 hr 19 min 19 sec) 
Heartbeat CPU 0 instructions: 390000001 cycles: 1032913201 heartbeat IPC: 0.222671 cumulative IPC: 0.291283 (Simulation time: 0 hr 19 min 57 sec) 
Heartbeat CPU 0 instructions: 400000000 cycles: 1074011405 heartbeat IPC: 0.24332 cumulative IPC: 0.289381 (Simulation time: 0 hr 20 min 31 sec) 
Heartbeat CPU 0 instructions: 410000001 cycles: 1101580220 heartbeat IPC: 0.362729 cumulative IPC: 0.291281 (Simulation time: 0 hr 21 min 3 sec) 
Heartbeat CPU 0 instructions: 420000003 cycles: 1133756190 heartbeat IPC: 0.310791 cumulative IPC: 0.291854 (Simulation time: 0 hr 21 min 37 sec) 
Heartbeat CPU 0 instructions: 430000002 cycles: 1161438530 heartbeat IPC: 0.361241 cumulative IPC: 0.293563 (Simulation time: 0 hr 22 min 8 sec) 
Heartbeat CPU 0 instructions: 440000000 cycles: 1183634999 heartbeat IPC: 0.450522 cumulative IPC: 0.296602 (Simulation time: 0 hr 22 min 38 sec) 
Heartbeat CPU 0 instructions: 450000001 cycles: 1209049159 heartbeat IPC: 0.393481 cumulative IPC: 0.298703 (Simulation time: 0 hr 23 min 8 sec) 
Heartbeat CPU 0 instructions: 460000000 cycles: 1250290246 heartbeat IPC: 0.242477 cumulative IPC: 0.296791 (Simulation time: 0 hr 23 min 38 sec) 
Heartbeat CPU 0 instructions: 470000000 cycles: 1279532161 heartbeat IPC: 0.341975 cumulative IPC: 0.297855 (Simulation time: 0 hr 24 min 10 sec) 
Heartbeat CPU 0 instructions: 480000000 cycles: 1312473275 heartbeat IPC: 0.303572 cumulative IPC: 0.298003 (Simulation time: 0 hr 24 min 49 sec) 
Heartbeat CPU 0 instructions: 490000001 cycles: 1338909369 heartbeat IPC: 0.378271 cumulative IPC: 0.299633 (Simulation time: 0 hr 25 min 19 sec) 
Heartbeat CPU 0 instructions: 500000000 cycles: 1386170268 heartbeat IPC: 0.211591 cumulative IPC: 0.296548 (Simulation time: 0 hr 25 min 55 sec) 
Heartbeat CPU 0 instructions: 510000001 cycles: 1421890164 heartbeat IPC: 0.279956 cumulative IPC: 0.29612 (Simulation time: 0 hr 26 min 29 sec) 
Heartbeat CPU 0 instructions: 520000002 cycles: 1453124079 heartbeat IPC: 0.320165 cumulative IPC: 0.296651 (Simulation time: 0 hr 27 min 1 sec) 
Heartbeat CPU 0 instructions: 530000000 cycles: 1492746151 heartbeat IPC: 0.252385 cumulative IPC: 0.295445 (Simulation time: 0 hr 27 min 36 sec) 
Heartbeat CPU 0 instructions: 540000000 cycles: 1525055050 heartbeat IPC: 0.309512 cumulative IPC: 0.295751 (Simulation time: 0 hr 28 min 9 sec) 
Heartbeat CPU 0 instructions: 550000000 cycles: 1567715046 heartbeat IPC: 0.234412 cumulative IPC: 0.294041 (Simulation time: 0 hr 28 min 48 sec) 
Heartbeat CPU 0 instructions: 560000003 cycles: 1616384166 heartbeat IPC: 0.205469 cumulative IPC: 0.291311 (Simulation time: 0 hr 29 min 25 sec) 
Heartbeat CPU 0 instructions: 570000000 cycles: 1655314122 heartbeat IPC: 0.256872 cumulative IPC: 0.290483 (Simulation time: 0 hr 29 min 58 sec) 
Heartbeat CPU 0 instructions: 580000003 cycles: 1690884813 heartbeat IPC: 0.28113 cumulative IPC: 0.290281 (Simulation time: 0 hr 30 min 32 sec) 
Heartbeat CPU 0 instructions: 590000000 cycles: 1728492192 heartbeat IPC: 0.265905 cumulative IPC: 0.289739 (Simulation time: 0 hr 31 min 5 sec) 
Heartbeat CPU 0 instructions: 600000000 cycles: 1752364471 heartbeat IPC: 0.418896 cumulative IPC: 0.291537 (Simulation time: 0 hr 31 min 35 sec) 
Heartbeat CPU 0 instructions: 610000003 cycles: 1780352028 heartbeat IPC: 0.357302 cumulative IPC: 0.292593 (Simulation time: 0 hr 32 min 4 sec) 
Heartbeat CPU 0 instructions: 620000000 cycles: 1809355683 heartbeat IPC: 0.344784 cumulative IPC: 0.293447 (Simulation time: 0 hr 32 min 36 sec) 
Heartbeat CPU 0 instructions: 630000003 cycles: 1859778823 heartbeat IPC: 0.198322 cumulative IPC: 0.290815 (Simulation time: 0 hr 33 min 14 sec) 
Heartbeat CPU 0 instructions: 640000000 cycles: 1888967217 heartbeat IPC: 0.342602 cumulative IPC: 0.291632 (Simulation time: 0 hr 33 min 47 sec) 
Heartbeat CPU 0 instructions: 650000001 cycles: 1941428934 heartbeat IPC: 0.190615 cumulative IPC: 0.288849 (Simulation time: 0 hr 34 min 23 sec) 
Heartbeat CPU 0 instructions: 660000000 cycles: 1973567822 heartbeat IPC: 0.31115 cumulative IPC: 0.289219 (Simulation time: 0 hr 34 min 54 sec) 
Heartbeat CPU 0 instructions: 670000002 cycles: 2003381007 heartbeat IPC: 0.335422 cumulative IPC: 0.289919 (Simulation time: 0 hr 35 min 24 sec) 
Heartbeat CPU 0 instructions: 680000000 cycles: 2036140315 heartbeat IPC: 0.305257 cumulative IPC: 0.290171 (Simulation time: 0 hr 35 min 57 sec) 
Heartbeat CPU 0 instructions: 690000002 cycles: 2075938520 heartbeat IPC: 0.251268 cumulative IPC: 0.289411 (Simulation time: 0 hr 36 min 28 sec) 
Heartbeat CPU 0 instructions: 700000000 cycles: 2110151230 heartbeat IPC: 0.292289 cumulative IPC: 0.289459 (Simulation time: 0 hr 37 min 2 sec) 
Heartbeat CPU 0 instructions: 710000003 cycles: 2138553957 heartbeat IPC: 0.352079 cumulative IPC: 0.290305 (Simulation time: 0 hr 37 min 37 sec) 
Heartbeat CPU 0 instructions: 720000001 cycles: 2178725378 heartbeat IPC: 0.248933 cumulative IPC: 0.289529 (Simulation time: 0 hr 38 min 14 sec) 
Heartbeat CPU 0 instructions: 730000003 cycles: 2209965047 heartbeat IPC: 0.320106 cumulative IPC: 0.289969 (Simulation time: 0 hr 38 min 46 sec) 
Heartbeat CPU 0 instructions: 740000001 cycles: 2236962167 heartbeat IPC: 0.37041 cumulative IPC: 0.290956 (Simulation time: 0 hr 39 min 17 sec) 
Heartbeat CPU 0 instructions: 750000003 cycles: 2260141813 heartbeat IPC: 0.431413 cumulative IPC: 0.292421 (Simulation time: 0 hr 39 min 47 sec) 
Heartbeat CPU 0 instructions: 760000003 cycles: 2294910914 heartbeat IPC: 0.287612 cumulative IPC: 0.292347 (Simulation time: 0 hr 40 min 17 sec) 
Heartbeat CPU 0 instructions: 770000000 cycles: 2346546863 heartbeat IPC: 0.193663 cumulative IPC: 0.29014 (Simulation time: 0 hr 40 min 51 sec) 
Heartbeat CPU 0 instructions: 780000000 cycles: 2377760170 heartbeat IPC: 0.320376 cumulative IPC: 0.290543 (Simulation time: 0 hr 41 min 25 sec) 
Heartbeat CPU 0 instructions: 790000001 cycles: 2416528061 heartbeat IPC: 0.257945 cumulative IPC: 0.290012 (Simulation time: 0 hr 42 min 2 sec) 
Heartbeat CPU 0 instructions: 800000002 cycles: 2455094137 heartbeat IPC: 0.259295 cumulative IPC: 0.289522 (Simulation time: 0 hr 42 min 36 sec) 
Heartbeat CPU 0 instructions: 810000003 cycles: 2499161148 heartbeat IPC: 0.226927 cumulative IPC: 0.288402 (Simulation time: 0 hr 43 min 8 sec) 
Heartbeat CPU 0 instructions: 820000002 cycles: 2524593001 heartbeat IPC: 0.393208 cumulative IPC: 0.289473 (Simulation time: 0 hr 43 min 37 sec) 
Heartbeat CPU 0 instructions: 830000002 cycles: 2546421133 heartbeat IPC: 0.458124 cumulative IPC: 0.29094 (Simulation time: 0 hr 44 min 8 sec) 
Heartbeat CPU 0 instructions: 840000002 cycles: 2582869431 heartbeat IPC: 0.274361 cumulative IPC: 0.290703 (Simulation time: 0 hr 44 min 42 sec) 
Heartbeat CPU 0 instructions: 850000001 cycles: 2611920927 heartbeat IPC: 0.344216 cumulative IPC: 0.291307 (Simulation time: 0 hr 45 min 14 sec) 
Heartbeat CPU 0 instructions: 860000001 cycles: 2650641701 heartbeat IPC: 0.258259 cumulative IPC: 0.290817 (Simulation time: 0 hr 45 min 48 sec) 
Heartbeat CPU 0 instructions: 870000000 cycles: 2679461759 heartbeat IPC: 0.346981 cumulative IPC: 0.29143 (Simulation time: 0 hr 46 min 19 sec) 
Heartbeat CPU 0 instructions: 880000000 cycles: 2717101387 heartbeat IPC: 0.265677 cumulative IPC: 0.291068 (Simulation time: 0 hr 46 min 56 sec) 
Heartbeat CPU 0 instructions: 890000000 cycles: 2750419007 heartbeat IPC: 0.300141 cumulative IPC: 0.29118 (Simulation time: 0 hr 47 min 30 sec) 
Heartbeat CPU 0 instructions: 900000001 cycles: 2780381391 heartbeat IPC: 0.333752 cumulative IPC: 0.291645 (Simulation time: 0 hr 48 min 3 sec) 
Heartbeat CPU 0 instructions: 910000002 cycles: 2803942717 heartbeat IPC: 0.424424 cumulative IPC: 0.292775 (Simulation time: 0 hr 48 min 34 sec) 
Heartbeat CPU 0 instructions: 920000001 cycles: 2832611818 heartbeat IPC: 0.348808 cumulative IPC: 0.29335 (Simulation time: 0 hr 49 min 5 sec) 
Heartbeat CPU 0 instructions: 930000000 cycles: 2865579204 heartbeat IPC: 0.30333 cumulative IPC: 0.293466 (Simulation time: 0 hr 49 min 34 sec) 
Heartbeat CPU 0 instructions: 940000001 cycles: 2893691773 heartbeat IPC: 0.355713 cumulative IPC: 0.294079 (Simulation time: 0 hr 50 min 7 sec) 
Heartbeat CPU 0 instructions: 950000003 cycles: 2926831712 heartbeat IPC: 0.301751 cumulative IPC: 0.294167 (Simulation time: 0 hr 50 min 44 sec) 
Heartbeat CPU 0 instructions: 960000001 cycles: 2951392848 heartbeat IPC: 0.407147 cumulative IPC: 0.295119 (Simulation time: 0 hr 51 min 17 sec) 
Heartbeat CPU 0 instructions: 970000002 cycles: 2986191690 heartbeat IPC: 0.287366 cumulative IPC: 0.295028 (Simulation time: 0 hr 51 min 48 sec) 
Heartbeat CPU 0 instructions: 980000002 cycles: 3011384301 heartbeat IPC: 0.396942 cumulative IPC: 0.295891 (Simulation time: 0 hr 52 min 19 sec) 
Heartbeat CPU 0 instructions: 990000000 cycles: 3034394398 heartbeat IPC: 0.434592 cumulative IPC: 0.296956 (Simulation time: 0 hr 52 min 51 sec) 
Heartbeat CPU 0 instructions: 1000000002 cycles: 3076030591 heartbeat IPC: 0.240176 cumulative IPC: 0.296178 (Simulation time: 0 hr 53 min 23 sec) 
Heartbeat CPU 0 instructions: 1010000000 cycles: 3104524285 heartbeat IPC: 0.350955 cumulative IPC: 0.296687 (Simulation time: 0 hr 53 min 55 sec) 
Heartbeat CPU 0 instructions: 1020000002 cycles: 3135472937 heartbeat IPC: 0.323116 cumulative IPC: 0.296951 (Simulation time: 0 hr 54 min 27 sec) 
Heartbeat CPU 0 instructions: 1030000002 cycles: 3189551206 heartbeat IPC: 0.184917 cumulative IPC: 0.295029 (Simulation time: 0 hr 55 min 4 sec) 
Heartbeat CPU 0 instructions: 1040000000 cycles: 3223593721 heartbeat IPC: 0.29375 cumulative IPC: 0.295015 (Simulation time: 0 hr 55 min 40 sec) 
Heartbeat CPU 0 instructions: 1050000001 cycles: 3254448935 heartbeat IPC: 0.324094 cumulative IPC: 0.295294 (Simulation time: 0 hr 56 min 11 sec) 
Heartbeat CPU 0 instructions: 1060000002 cycles: 3284952710 heartbeat IPC: 0.327828 cumulative IPC: 0.2956 (Simulation time: 0 hr 56 min 40 sec) 
Heartbeat CPU 0 instructions: 1070000001 cycles: 3307403847 heartbeat IPC: 0.445412 cumulative IPC: 0.296628 (Simulation time: 0 hr 57 min 12 sec) 
Heartbeat CPU 0 instructions: 1080000001 cycles: 3342103385 heartbeat IPC: 0.288188 cumulative IPC: 0.29654 (Simulation time: 0 hr 57 min 42 sec) 
Heartbeat CPU 0 instructions: 1090000002 cycles: 3386826114 heartbeat IPC: 0.2236 cumulative IPC: 0.295566 (Simulation time: 0 hr 58 min 16 sec) 
Heartbeat CPU 0 instructions: 1100000000 cycles: 3429739338 heartbeat IPC: 0.233028 cumulative IPC: 0.294775 (Simulation time: 0 hr 58 min 50 sec) 
Finished CPU 0 instructions: 1000000000 cycles: 3392422627 cumulative IPC: 0.294775 (Simulation time: 0 hr 58 min 50 sec) 

ChampSim completed all CPUs

Region of Interest Statistics

CPU 0 cumulative IPC: 0.294775 instructions: 1000000000 cycles: 3392422627
L1D TOTAL     ACCESS:  363269066  HIT:  332789999  MISS:   30479067
L1D LOAD      ACCESS:  139578118  HIT:  109105228  MISS:   30472890
L1D RFO       ACCESS:  223690948  HIT:  223684771  MISS:       6177
L1D PREFETCH  ACCESS:          0  HIT:          0  MISS:          0
L1D WRITEBACK ACCESS:          0  HIT:          0  MISS:          0
L1D PREFETCH  REQUESTED:          0  ISSUED:          0  USEFUL:          0  USELESS:          0
L1D AVERAGE MISS LATENCY: 239.026 cycles
L1I TOTAL     ACCESS:  185354559  HIT:  185354559  MISS:          0
L1I LOAD      ACCESS:  185354559  HIT:  185354559  MISS:          0
L1I RFO       ACCESS:          0  HIT:          0  MISS:          0
L1I PREFETCH  ACCESS:          0  HIT:          0  MISS:          0
L1I WRITEBACK ACCESS:          0  HIT:          0  MISS:          0
L1I PREFETCH  REQUESTED:          0  ISSUED:          0  USEFUL:          0  USELESS:          0
L1I AVERAGE MISS LATENCY: -nan cycles
L2C TOTAL     ACCESS:   43857766  HIT:   14161927  MISS:   29695839
L2C LOAD      ACCESS:   30469032  HIT:     807434  MISS:   29661598
L2C RFO       ACCESS:       6177  HIT:       5323  MISS:        854
L2C PREFETCH  ACCESS:          0  HIT:          0  MISS:          0
L2C WRITEBACK ACCESS:   13382557  HIT:   13349170  MISS:      33387
L2C PREFETCH  REQUESTED:          0  ISSUED:          0  USEFUL:          0  USELESS:          0
L2C AVERAGE MISS LATENCY: 221.926 cycles
LLC TOTAL     ACCESS:   42436581  HIT:   13290540  MISS:   29146041
LLC LOAD      ACCESS:   29661539  HIT:     522323  MISS:   29139216
LLC RFO       ACCESS:        854  HIT:        452  MISS:        402
LLC PREFETCH  ACCESS:          0  HIT:          0  MISS:          0
LLC WRITEBACK ACCESS:   12774188  HIT:   12767765  MISS:       6423
LLC PREFETCH  REQUESTED:          0  ISSUED:          0  USEFUL:          0  USELESS:          0
LLC AVERAGE MISS LATENCY: 182.945 cycles
Major fault: 0 Minor fault: 389068

DRAM Statistics
 CHANNEL 0
 RQ ROW_BUFFER_HIT:    5654638  ROW_BUFFER_MISS:   23484913
 DBUS_CONGESTED:   17301262
 WQ ROW_BUFFER_HIT:    4512485  ROW_BUFFER_MISS:    7922987  FULL:          0

 AVG_CONGESTED_CYCLE: 6

CPU 0 Branch Prediction Accuracy: 96.6969% MPKI: 2.99068 Average ROB Occupancy at Mispredict: 89.9014

Branch types
NOT_BRANCH: 909457762 90.9458%
BRANCH_DIRECT_JUMP: 2039619 0.203962%
BRANCH_INDIRECT: 0 0%
BRANCH_CONDITIONAL: 86463194 8.64632%
BRANCH_DIRECT_CALL: 1019527 0.101953%
BRANCH_INDIRECT_CALL: 0 0%
BRANCH_RETURN: 1019528 0.101953%
BRANCH_OTHER: 0 0%

