
*** ChampSim Multicore Out-of-Order Simulator ***

Warmup Instructions: 100000000
Simulation Instructions: 1000000000
Number of CPUs: 1
LLC sets: 2048
LLC ways: 16
Off-chip DRAM Size: 4096 MB Channels: 1 Width: 64-bit Data Rate: 3200 MT/s

CPU 0 runs /scratch/user/kevin.weston/dpc3-traces/429.champsimtrace.xz
CPU 0 Bimodal branch predictor
Initialize SHIP state
Assign rand_sets[0]: 454  LLC: 2048
rand_sets[0]: 454
Assign rand_sets[1]: 1662  LLC: 2048
rand_sets[1]: 1662
Assign rand_sets[2]: 1921  LLC: 2048
rand_sets[2]: 1921
Assign rand_sets[3]: 1131  LLC: 2048
rand_sets[3]: 1131
Assign rand_sets[4]: 331  LLC: 2048
rand_sets[4]: 331
Assign rand_sets[5]: 1531  LLC: 2048
rand_sets[5]: 1531
Assign rand_sets[6]: 482  LLC: 2048
rand_sets[6]: 482
Assign rand_sets[7]: 1275  LLC: 2048
rand_sets[7]: 1275
Assign rand_sets[8]: 1876  LLC: 2048
rand_sets[8]: 1876
Assign rand_sets[9]: 2038  LLC: 2048
rand_sets[9]: 2038
Assign rand_sets[10]: 701  LLC: 2048
rand_sets[10]: 701
Assign rand_sets[11]: 479  LLC: 2048
rand_sets[11]: 479
Assign rand_sets[12]: 892  LLC: 2048
rand_sets[12]: 892
Assign rand_sets[13]: 1820  LLC: 2048
rand_sets[13]: 1820
Assign rand_sets[14]: 1505  LLC: 2048
rand_sets[14]: 1505
Assign rand_sets[15]: 1159  LLC: 2048
rand_sets[15]: 1159
Assign rand_sets[16]: 513  LLC: 2048
rand_sets[16]: 513
Assign rand_sets[17]: 703  LLC: 2048
rand_sets[17]: 703
Assign rand_sets[18]: 561  LLC: 2048
rand_sets[18]: 561
Assign rand_sets[19]: 990  LLC: 2048
rand_sets[19]: 990
Assign rand_sets[20]: 342  LLC: 2048
rand_sets[20]: 342
Assign rand_sets[21]: 882  LLC: 2048
rand_sets[21]: 882
Assign rand_sets[22]: 15  LLC: 2048
rand_sets[22]: 15
Assign rand_sets[23]: 71  LLC: 2048
rand_sets[23]: 71
Assign rand_sets[24]: 1127  LLC: 2048
rand_sets[24]: 1127
Assign rand_sets[25]: 1382  LLC: 2048
rand_sets[25]: 1382
Assign rand_sets[26]: 647  LLC: 2048
rand_sets[26]: 647
Assign rand_sets[27]: 857  LLC: 2048
rand_sets[27]: 857
Assign rand_sets[28]: 1450  LLC: 2048
rand_sets[28]: 1450
Assign rand_sets[29]: 1160  LLC: 2048
rand_sets[29]: 1160
Assign rand_sets[30]: 1852  LLC: 2048
rand_sets[30]: 1852
Assign rand_sets[31]: 1881  LLC: 2048
rand_sets[31]: 1881
Assign rand_sets[32]: 1770  LLC: 2048
rand_sets[32]: 1770
Assign rand_sets[33]: 1622  LLC: 2048
rand_sets[33]: 1622
Assign rand_sets[34]: 275  LLC: 2048
rand_sets[34]: 275
Assign rand_sets[35]: 635  LLC: 2048
rand_sets[35]: 635
Assign rand_sets[36]: 466  LLC: 2048
rand_sets[36]: 466
Assign rand_sets[37]: 1413  LLC: 2048
rand_sets[37]: 1413
Assign rand_sets[38]: 417  LLC: 2048
rand_sets[38]: 417
Assign rand_sets[39]: 472  LLC: 2048
rand_sets[39]: 472
Assign rand_sets[40]: 1340  LLC: 2048
rand_sets[40]: 1340
Assign rand_sets[41]: 852  LLC: 2048
rand_sets[41]: 852
Assign rand_sets[42]: 1365  LLC: 2048
rand_sets[42]: 1365
Assign rand_sets[43]: 47  LLC: 2048
rand_sets[43]: 47
Assign rand_sets[44]: 823  LLC: 2048
rand_sets[44]: 823
Assign rand_sets[45]: 686  LLC: 2048
rand_sets[45]: 686
Assign rand_sets[46]: 1637  LLC: 2048
rand_sets[46]: 1637
Assign rand_sets[47]: 1115  LLC: 2048
rand_sets[47]: 1115
Assign rand_sets[48]: 986  LLC: 2048
rand_sets[48]: 986
Assign rand_sets[49]: 258  LLC: 2048
rand_sets[49]: 258
Assign rand_sets[50]: 633  LLC: 2048
rand_sets[50]: 633
Assign rand_sets[51]: 920  LLC: 2048
rand_sets[51]: 920
Assign rand_sets[52]: 204  LLC: 2048
rand_sets[52]: 204
Assign rand_sets[53]: 227  LLC: 2048
rand_sets[53]: 227
Assign rand_sets[54]: 1818  LLC: 2048
rand_sets[54]: 1818
Assign rand_sets[55]: 886  LLC: 2048
rand_sets[55]: 886
Assign rand_sets[56]: 1422  LLC: 2048
rand_sets[56]: 1422
Assign rand_sets[57]: 607  LLC: 2048
rand_sets[57]: 607
Assign rand_sets[58]: 217  LLC: 2048
rand_sets[58]: 217
Assign rand_sets[59]: 1945  LLC: 2048
rand_sets[59]: 1945
Assign rand_sets[60]: 143  LLC: 2048
rand_sets[60]: 143
Assign rand_sets[61]: 1311  LLC: 2048
rand_sets[61]: 1311
Assign rand_sets[62]: 319  LLC: 2048
rand_sets[62]: 319
Assign rand_sets[63]: 1846  LLC: 2048
rand_sets[63]: 1846
Assign rand_sets[64]: 238  LLC: 2048
rand_sets[64]: 238
Assign rand_sets[65]: 67  LLC: 2048
rand_sets[65]: 67
Assign rand_sets[66]: 1912  LLC: 2048
rand_sets[66]: 1912
Assign rand_sets[67]: 1613  LLC: 2048
rand_sets[67]: 1613
Assign rand_sets[68]: 1293  LLC: 2048
rand_sets[68]: 1293
Assign rand_sets[69]: 1018  LLC: 2048
rand_sets[69]: 1018
Assign rand_sets[70]: 1982  LLC: 2048
rand_sets[70]: 1982
Assign rand_sets[71]: 1702  LLC: 2048
rand_sets[71]: 1702
Assign rand_sets[72]: 1498  LLC: 2048
rand_sets[72]: 1498
Assign rand_sets[73]: 228  LLC: 2048
rand_sets[73]: 228
Assign rand_sets[74]: 1414  LLC: 2048
rand_sets[74]: 1414
Assign rand_sets[75]: 1166  LLC: 2048
rand_sets[75]: 1166
Assign rand_sets[76]: 732  LLC: 2048
rand_sets[76]: 732
Assign rand_sets[77]: 297  LLC: 2048
rand_sets[77]: 297
Assign rand_sets[78]: 1133  LLC: 2048
rand_sets[78]: 1133
Assign rand_sets[79]: 846  LLC: 2048
rand_sets[79]: 846
Assign rand_sets[80]: 767  LLC: 2048
rand_sets[80]: 767
Assign rand_sets[81]: 1878  LLC: 2048
rand_sets[81]: 1878
Assign rand_sets[82]: 993  LLC: 2048
rand_sets[82]: 993
Assign rand_sets[83]: 1392  LLC: 2048
rand_sets[83]: 1392
Assign rand_sets[84]: 1568  LLC: 2048
rand_sets[84]: 1568
Assign rand_sets[85]: 1787  LLC: 2048
rand_sets[85]: 1787
Assign rand_sets[86]: 399  LLC: 2048
rand_sets[86]: 399
Assign rand_sets[87]: 1201  LLC: 2048
rand_sets[87]: 1201
Assign rand_sets[88]: 856  LLC: 2048
rand_sets[88]: 856
Assign rand_sets[89]: 773  LLC: 2048
rand_sets[89]: 773
Assign rand_sets[90]: 1680  LLC: 2048
rand_sets[90]: 1680
Assign rand_sets[91]: 1477  LLC: 2048
rand_sets[91]: 1477
Assign rand_sets[92]: 9  LLC: 2048
rand_sets[92]: 9
Assign rand_sets[93]: 1500  LLC: 2048
rand_sets[93]: 1500
Assign rand_sets[94]: 851  LLC: 2048
rand_sets[94]: 851
Assign rand_sets[95]: 973  LLC: 2048
rand_sets[95]: 973
Assign rand_sets[96]: 938  LLC: 2048
rand_sets[96]: 938
Assign rand_sets[97]: 1851  LLC: 2048
rand_sets[97]: 1851
Assign rand_sets[98]: 1608  LLC: 2048
rand_sets[98]: 1608
Assign rand_sets[99]: 1945  LLC: 2048
Assign rand_sets[99]: 1106  LLC: 2048
rand_sets[99]: 1106
Assign rand_sets[100]: 979  LLC: 2048
rand_sets[100]: 979
Assign rand_sets[101]: 338  LLC: 2048
rand_sets[101]: 338
Assign rand_sets[102]: 1693  LLC: 2048
rand_sets[102]: 1693
Assign rand_sets[103]: 6  LLC: 2048
rand_sets[103]: 6
Assign rand_sets[104]: 671  LLC: 2048
rand_sets[104]: 671
Assign rand_sets[105]: 490  LLC: 2048
rand_sets[105]: 490
Assign rand_sets[106]: 1461  LLC: 2048
rand_sets[106]: 1461
Assign rand_sets[107]: 1730  LLC: 2048
rand_sets[107]: 1730
Assign rand_sets[108]: 1030  LLC: 2048
rand_sets[108]: 1030
Assign rand_sets[109]: 19  LLC: 2048
rand_sets[109]: 19
Assign rand_sets[110]: 920  LLC: 2048
Assign rand_sets[110]: 329  LLC: 2048
rand_sets[110]: 329
Assign rand_sets[111]: 1714  LLC: 2048
rand_sets[111]: 1714
Assign rand_sets[112]: 1  LLC: 2048
rand_sets[112]: 1
Assign rand_sets[113]: 1822  LLC: 2048
rand_sets[113]: 1822
Assign rand_sets[114]: 172  LLC: 2048
rand_sets[114]: 172
Assign rand_sets[115]: 1586  LLC: 2048
rand_sets[115]: 1586
Assign rand_sets[116]: 648  LLC: 2048
rand_sets[116]: 648
Assign rand_sets[117]: 1329  LLC: 2048
rand_sets[117]: 1329
Assign rand_sets[118]: 668  LLC: 2048
rand_sets[118]: 668
Assign rand_sets[119]: 1874  LLC: 2048
rand_sets[119]: 1874
Assign rand_sets[120]: 70  LLC: 2048
rand_sets[120]: 70
Assign rand_sets[121]: 661  LLC: 2048
rand_sets[121]: 661
Assign rand_sets[122]: 1649  LLC: 2048
rand_sets[122]: 1649
Assign rand_sets[123]: 1590  LLC: 2048
rand_sets[123]: 1590
Assign rand_sets[124]: 911  LLC: 2048
rand_sets[124]: 911
Assign rand_sets[125]: 1367  LLC: 2048
rand_sets[125]: 1367
Assign rand_sets[126]: 1782  LLC: 2048
rand_sets[126]: 1782
Assign rand_sets[127]: 569  LLC: 2048
rand_sets[127]: 569
Heartbeat CPU 0 instructions: 10000002 cycles: 3654943 heartbeat IPC: 2.73602 cumulative IPC: 2.73602 (Simulation time: 0 hr 0 min 23 sec) 
Heartbeat CPU 0 instructions: 20000000 cycles: 7581218 heartbeat IPC: 2.54694 cumulative IPC: 2.6381 (Simulation time: 0 hr 0 min 46 sec) 
Heartbeat CPU 0 instructions: 30000003 cycles: 11194640 heartbeat IPC: 2.76746 cumulative IPC: 2.67985 (Simulation time: 0 hr 1 min 8 sec) 
Heartbeat CPU 0 instructions: 40000001 cycles: 14809346 heartbeat IPC: 2.76648 cumulative IPC: 2.701 (Simulation time: 0 hr 1 min 30 sec) 
Heartbeat CPU 0 instructions: 50000002 cycles: 18425409 heartbeat IPC: 2.76544 cumulative IPC: 2.71364 (Simulation time: 0 hr 1 min 53 sec) 
Heartbeat CPU 0 instructions: 60000000 cycles: 22229977 heartbeat IPC: 2.62842 cumulative IPC: 2.69906 (Simulation time: 0 hr 2 min 16 sec) 
Heartbeat CPU 0 instructions: 70000003 cycles: 25908860 heartbeat IPC: 2.71822 cumulative IPC: 2.70178 (Simulation time: 0 hr 2 min 39 sec) 
Heartbeat CPU 0 instructions: 80000003 cycles: 29746763 heartbeat IPC: 2.60559 cumulative IPC: 2.68937 (Simulation time: 0 hr 3 min 2 sec) 
Heartbeat CPU 0 instructions: 90000000 cycles: 33546235 heartbeat IPC: 2.63194 cumulative IPC: 2.68286 (Simulation time: 0 hr 3 min 25 sec) 
Heartbeat CPU 0 instructions: 100000002 cycles: 37315543 heartbeat IPC: 2.65301 cumulative IPC: 2.67985 (Simulation time: 0 hr 3 min 48 sec) 

Warmup complete CPU 0 instructions: 100000002 cycles: 37315543 (Simulation time: 0 hr 3 min 48 sec) 

Heartbeat CPU 0 instructions: 110000000 cycles: 73370152 heartbeat IPC: 0.277357 cumulative IPC: 0.277357 (Simulation time: 0 hr 4 min 22 sec) 
Heartbeat CPU 0 instructions: 120000001 cycles: 102850476 heartbeat IPC: 0.339209 cumulative IPC: 0.305181 (Simulation time: 0 hr 4 min 52 sec) 
Heartbeat CPU 0 instructions: 130000000 cycles: 146253541 heartbeat IPC: 0.230398 cumulative IPC: 0.275386 (Simulation time: 0 hr 5 min 29 sec) 
Heartbeat CPU 0 instructions: 140000002 cycles: 177823915 heartbeat IPC: 0.316753 cumulative IPC: 0.284681 (Simulation time: 0 hr 6 min 5 sec) 
Heartbeat CPU 0 instructions: 150000003 cycles: 212392656 heartbeat IPC: 0.289279 cumulative IPC: 0.285588 (Simulation time: 0 hr 6 min 41 sec) 
Heartbeat CPU 0 instructions: 160000002 cycles: 250095460 heartbeat IPC: 0.265232 cumulative IPC: 0.281981 (Simulation time: 0 hr 7 min 15 sec) 
Heartbeat CPU 0 instructions: 170000001 cycles: 272901056 heartbeat IPC: 0.438489 cumulative IPC: 0.297132 (Simulation time: 0 hr 7 min 47 sec) 
Heartbeat CPU 0 instructions: 180000000 cycles: 296342657 heartbeat IPC: 0.426592 cumulative IPC: 0.308848 (Simulation time: 0 hr 8 min 18 sec) 
Heartbeat CPU 0 instructions: 190000001 cycles: 329857662 heartbeat IPC: 0.298374 cumulative IPC: 0.307648 (Simulation time: 0 hr 8 min 54 sec) 
Heartbeat CPU 0 instructions: 200000001 cycles: 350622187 heartbeat IPC: 0.481591 cumulative IPC: 0.319176 (Simulation time: 0 hr 9 min 25 sec) 
Heartbeat CPU 0 instructions: 210000003 cycles: 380079633 heartbeat IPC: 0.339473 cumulative IPC: 0.32092 (Simulation time: 0 hr 9 min 55 sec) 
Heartbeat CPU 0 instructions: 220000000 cycles: 416297322 heartbeat IPC: 0.276108 cumulative IPC: 0.316638 (Simulation time: 0 hr 10 min 29 sec) 
Heartbeat CPU 0 instructions: 230000003 cycles: 463857591 heartbeat IPC: 0.21026 cumulative IPC: 0.304777 (Simulation time: 0 hr 11 min 2 sec) 
Heartbeat CPU 0 instructions: 240000003 cycles: 507242009 heartbeat IPC: 0.230498 cumulative IPC: 0.297919 (Simulation time: 0 hr 11 min 39 sec) 
Heartbeat CPU 0 instructions: 250000000 cycles: 547170466 heartbeat IPC: 0.250448 cumulative IPC: 0.294201 (Simulation time: 0 hr 12 min 15 sec) 
Heartbeat CPU 0 instructions: 260000002 cycles: 574820454 heartbeat IPC: 0.361664 cumulative IPC: 0.297672 (Simulation time: 0 hr 12 min 45 sec) 
Heartbeat CPU 0 instructions: 270000002 cycles: 597510060 heartbeat IPC: 0.44073 cumulative IPC: 0.303466 (Simulation time: 0 hr 13 min 17 sec) 
Heartbeat CPU 0 instructions: 280000000 cycles: 624457497 heartbeat IPC: 0.371093 cumulative IPC: 0.30657 (Simulation time: 0 hr 13 min 45 sec) 
Heartbeat CPU 0 instructions: 290000001 cycles: 656364474 heartbeat IPC: 0.313411 cumulative IPC: 0.306922 (Simulation time: 0 hr 14 min 18 sec) 
Heartbeat CPU 0 instructions: 300000001 cycles: 690634026 heartbeat IPC: 0.291804 cumulative IPC: 0.306129 (Simulation time: 0 hr 14 min 55 sec) 
Heartbeat CPU 0 instructions: 310000002 cycles: 725631294 heartbeat IPC: 0.285737 cumulative IPC: 0.305093 (Simulation time: 0 hr 15 min 31 sec) 
Heartbeat CPU 0 instructions: 320000000 cycles: 770251781 heartbeat IPC: 0.224112 cumulative IPC: 0.300163 (Simulation time: 0 hr 16 min 6 sec) 
Heartbeat CPU 0 instructions: 330000000 cycles: 792204367 heartbeat IPC: 0.455527 cumulative IPC: 0.304681 (Simulation time: 0 hr 16 min 37 sec) 
Heartbeat CPU 0 instructions: 340000002 cycles: 826548971 heartbeat IPC: 0.291167 cumulative IPC: 0.304093 (Simulation time: 0 hr 17 min 8 sec) 
Heartbeat CPU 0 instructions: 350000003 cycles: 867789694 heartbeat IPC: 0.242479 cumulative IPC: 0.301033 (Simulation time: 0 hr 17 min 42 sec) 
Heartbeat CPU 0 instructions: 360000002 cycles: 898576297 heartbeat IPC: 0.324817 cumulative IPC: 0.301883 (Simulation time: 0 hr 18 min 13 sec) 
Heartbeat CPU 0 instructions: 370000001 cycles: 947279895 heartbeat IPC: 0.205324 cumulative IPC: 0.296715 (Simulation time: 0 hr 18 min 51 sec) 
Heartbeat CPU 0 instructions: 380000002 cycles: 971242241 heartbeat IPC: 0.417321 cumulative IPC: 0.299809 (Simulation time: 0 hr 19 min 23 sec) 
Heartbeat CPU 0 instructions: 390000001 cycles: 1014478677 heartbeat IPC: 0.231286 cumulative IPC: 0.296777 (Simulation time: 0 hr 20 min 1 sec) 
Heartbeat CPU 0 instructions: 400000000 cycles: 1055209779 heartbeat IPC: 0.245513 cumulative IPC: 0.294726 (Simulation time: 0 hr 20 min 36 sec) 
Heartbeat CPU 0 instructions: 410000001 cycles: 1082286556 heartbeat IPC: 0.36932 cumulative IPC: 0.296659 (Simulation time: 0 hr 21 min 9 sec) 
Heartbeat CPU 0 instructions: 420000003 cycles: 1114052152 heartbeat IPC: 0.314806 cumulative IPC: 0.297194 (Simulation time: 0 hr 21 min 43 sec) 
Heartbeat CPU 0 instructions: 430000002 cycles: 1141573835 heartbeat IPC: 0.36335 cumulative IPC: 0.298843 (Simulation time: 0 hr 22 min 15 sec) 
Heartbeat CPU 0 instructions: 440000000 cycles: 1163602314 heartbeat IPC: 0.453958 cumulative IPC: 0.301877 (Simulation time: 0 hr 22 min 45 sec) 
Heartbeat CPU 0 instructions: 450000001 cycles: 1188837979 heartbeat IPC: 0.396265 cumulative IPC: 0.303945 (Simulation time: 0 hr 23 min 15 sec) 
Heartbeat CPU 0 instructions: 460000000 cycles: 1229543045 heartbeat IPC: 0.24567 cumulative IPC: 0.301956 (Simulation time: 0 hr 23 min 46 sec) 
Heartbeat CPU 0 instructions: 470000000 cycles: 1257968950 heartbeat IPC: 0.351792 cumulative IPC: 0.303116 (Simulation time: 0 hr 24 min 20 sec) 
Heartbeat CPU 0 instructions: 480000000 cycles: 1290421129 heartbeat IPC: 0.308146 cumulative IPC: 0.303247 (Simulation time: 0 hr 24 min 58 sec) 
Heartbeat CPU 0 instructions: 490000001 cycles: 1316604314 heartbeat IPC: 0.381925 cumulative IPC: 0.304857 (Simulation time: 0 hr 25 min 29 sec) 
Heartbeat CPU 0 instructions: 500000000 cycles: 1363234539 heartbeat IPC: 0.214453 cumulative IPC: 0.301678 (Simulation time: 0 hr 26 min 6 sec) 
Heartbeat CPU 0 instructions: 510000001 cycles: 1398222081 heartbeat IPC: 0.285816 cumulative IPC: 0.30127 (Simulation time: 0 hr 26 min 40 sec) 
Heartbeat CPU 0 instructions: 520000002 cycles: 1428957582 heartbeat IPC: 0.325357 cumulative IPC: 0.301802 (Simulation time: 0 hr 27 min 12 sec) 
Heartbeat CPU 0 instructions: 530000000 cycles: 1468271146 heartbeat IPC: 0.254365 cumulative IPC: 0.300498 (Simulation time: 0 hr 27 min 49 sec) 
Heartbeat CPU 0 instructions: 540000000 cycles: 1499947787 heartbeat IPC: 0.31569 cumulative IPC: 0.300828 (Simulation time: 0 hr 28 min 23 sec) 
Heartbeat CPU 0 instructions: 550000000 cycles: 1542028142 heartbeat IPC: 0.237641 cumulative IPC: 0.29906 (Simulation time: 0 hr 29 min 3 sec) 
Heartbeat CPU 0 instructions: 560000003 cycles: 1589421726 heartbeat IPC: 0.210999 cumulative IPC: 0.296371 (Simulation time: 0 hr 29 min 40 sec) 
Heartbeat CPU 0 instructions: 570000000 cycles: 1627270483 heartbeat IPC: 0.264209 cumulative IPC: 0.295606 (Simulation time: 0 hr 30 min 14 sec) 
Heartbeat CPU 0 instructions: 580000003 cycles: 1662731149 heartbeat IPC: 0.282003 cumulative IPC: 0.295309 (Simulation time: 0 hr 30 min 49 sec) 
Heartbeat CPU 0 instructions: 590000000 cycles: 1699808918 heartbeat IPC: 0.269703 cumulative IPC: 0.294738 (Simulation time: 0 hr 31 min 23 sec) 
Heartbeat CPU 0 instructions: 600000000 cycles: 1723414227 heartbeat IPC: 0.423634 cumulative IPC: 0.296543 (Simulation time: 0 hr 31 min 54 sec) 
Heartbeat CPU 0 instructions: 610000003 cycles: 1751176815 heartbeat IPC: 0.360197 cumulative IPC: 0.297574 (Simulation time: 0 hr 32 min 24 sec) 
Heartbeat CPU 0 instructions: 620000000 cycles: 1779701428 heartbeat IPC: 0.350574 cumulative IPC: 0.298441 (Simulation time: 0 hr 32 min 57 sec) 
Heartbeat CPU 0 instructions: 630000003 cycles: 1829276034 heartbeat IPC: 0.201716 cumulative IPC: 0.295765 (Simulation time: 0 hr 33 min 37 sec) 
Heartbeat CPU 0 instructions: 640000000 cycles: 1857893467 heartbeat IPC: 0.349437 cumulative IPC: 0.296609 (Simulation time: 0 hr 34 min 10 sec) 
Heartbeat CPU 0 instructions: 650000001 cycles: 1909032683 heartbeat IPC: 0.195545 cumulative IPC: 0.293848 (Simulation time: 0 hr 34 min 47 sec) 
Heartbeat CPU 0 instructions: 660000000 cycles: 1939673392 heartbeat IPC: 0.326363 cumulative IPC: 0.294372 (Simulation time: 0 hr 35 min 18 sec) 
Heartbeat CPU 0 instructions: 670000002 cycles: 1968786580 heartbeat IPC: 0.343487 cumulative IPC: 0.295112 (Simulation time: 0 hr 35 min 50 sec) 
Heartbeat CPU 0 instructions: 680000000 cycles: 2000819678 heartbeat IPC: 0.312177 cumulative IPC: 0.29539 (Simulation time: 0 hr 36 min 24 sec) 
Heartbeat CPU 0 instructions: 690000002 cycles: 2039912180 heartbeat IPC: 0.255804 cumulative IPC: 0.294618 (Simulation time: 0 hr 36 min 56 sec) 
Heartbeat CPU 0 instructions: 700000000 cycles: 2073582306 heartbeat IPC: 0.296999 cumulative IPC: 0.294657 (Simulation time: 0 hr 37 min 30 sec) 
Heartbeat CPU 0 instructions: 710000003 cycles: 2101882983 heartbeat IPC: 0.353349 cumulative IPC: 0.295461 (Simulation time: 0 hr 38 min 6 sec) 
Heartbeat CPU 0 instructions: 720000001 cycles: 2140857497 heartbeat IPC: 0.256578 cumulative IPC: 0.294741 (Simulation time: 0 hr 38 min 43 sec) 
Heartbeat CPU 0 instructions: 730000003 cycles: 2171628120 heartbeat IPC: 0.324985 cumulative IPC: 0.295177 (Simulation time: 0 hr 39 min 16 sec) 
Heartbeat CPU 0 instructions: 740000001 cycles: 2198533408 heartbeat IPC: 0.371674 cumulative IPC: 0.296129 (Simulation time: 0 hr 39 min 48 sec) 
Heartbeat CPU 0 instructions: 750000003 cycles: 2221537726 heartbeat IPC: 0.434701 cumulative IPC: 0.297589 (Simulation time: 0 hr 40 min 18 sec) 
Heartbeat CPU 0 instructions: 760000003 cycles: 2255766887 heartbeat IPC: 0.292149 cumulative IPC: 0.297505 (Simulation time: 0 hr 40 min 49 sec) 
Heartbeat CPU 0 instructions: 770000000 cycles: 2306666907 heartbeat IPC: 0.196464 cumulative IPC: 0.295239 (Simulation time: 0 hr 41 min 25 sec) 
Heartbeat CPU 0 instructions: 780000000 cycles: 2337088248 heartbeat IPC: 0.328717 cumulative IPC: 0.295681 (Simulation time: 0 hr 41 min 59 sec) 
Heartbeat CPU 0 instructions: 790000001 cycles: 2375120399 heartbeat IPC: 0.262935 cumulative IPC: 0.295149 (Simulation time: 0 hr 42 min 36 sec) 
Heartbeat CPU 0 instructions: 800000002 cycles: 2412824143 heartbeat IPC: 0.265226 cumulative IPC: 0.294674 (Simulation time: 0 hr 43 min 11 sec) 
Heartbeat CPU 0 instructions: 810000003 cycles: 2455770433 heartbeat IPC: 0.232849 cumulative IPC: 0.293576 (Simulation time: 0 hr 43 min 43 sec) 
Heartbeat CPU 0 instructions: 820000002 cycles: 2480855377 heartbeat IPC: 0.398645 cumulative IPC: 0.294654 (Simulation time: 0 hr 44 min 12 sec) 
Heartbeat CPU 0 instructions: 830000002 cycles: 2502499215 heartbeat IPC: 0.462025 cumulative IPC: 0.296124 (Simulation time: 0 hr 44 min 44 sec) 
Heartbeat CPU 0 instructions: 840000002 cycles: 2538440259 heartbeat IPC: 0.278233 cumulative IPC: 0.295867 (Simulation time: 0 hr 45 min 19 sec) 
Heartbeat CPU 0 instructions: 850000001 cycles: 2566766058 heartbeat IPC: 0.353035 cumulative IPC: 0.296507 (Simulation time: 0 hr 45 min 51 sec) 
Heartbeat CPU 0 instructions: 860000001 cycles: 2604285198 heartbeat IPC: 0.266531 cumulative IPC: 0.296069 (Simulation time: 0 hr 46 min 25 sec) 
Heartbeat CPU 0 instructions: 870000000 cycles: 2633041948 heartbeat IPC: 0.347744 cumulative IPC: 0.296641 (Simulation time: 0 hr 46 min 56 sec) 
Heartbeat CPU 0 instructions: 880000000 cycles: 2669954073 heartbeat IPC: 0.270914 cumulative IPC: 0.296281 (Simulation time: 0 hr 47 min 34 sec) 
Heartbeat CPU 0 instructions: 890000000 cycles: 2702658807 heartbeat IPC: 0.305766 cumulative IPC: 0.296397 (Simulation time: 0 hr 48 min 9 sec) 
Heartbeat CPU 0 instructions: 900000001 cycles: 2732534134 heartbeat IPC: 0.334724 cumulative IPC: 0.296822 (Simulation time: 0 hr 48 min 42 sec) 
Heartbeat CPU 0 instructions: 910000002 cycles: 2756038469 heartbeat IPC: 0.425453 cumulative IPC: 0.297934 (Simulation time: 0 hr 49 min 14 sec) 
Heartbeat CPU 0 instructions: 920000001 cycles: 2784143695 heartbeat IPC: 0.355806 cumulative IPC: 0.298526 (Simulation time: 0 hr 49 min 45 sec) 
Heartbeat CPU 0 instructions: 930000000 cycles: 2816527935 heartbeat IPC: 0.308792 cumulative IPC: 0.298646 (Simulation time: 0 hr 50 min 16 sec) 
Heartbeat CPU 0 instructions: 940000001 cycles: 2844139383 heartbeat IPC: 0.362169 cumulative IPC: 0.299271 (Simulation time: 0 hr 50 min 48 sec) 
Heartbeat CPU 0 instructions: 950000003 cycles: 2876906036 heartbeat IPC: 0.305188 cumulative IPC: 0.299339 (Simulation time: 0 hr 51 min 27 sec) 
Heartbeat CPU 0 instructions: 960000001 cycles: 2901056068 heartbeat IPC: 0.414078 cumulative IPC: 0.300307 (Simulation time: 0 hr 52 min 0 sec) 
Heartbeat CPU 0 instructions: 970000002 cycles: 2935427166 heartbeat IPC: 0.290942 cumulative IPC: 0.300195 (Simulation time: 0 hr 52 min 31 sec) 
Heartbeat CPU 0 instructions: 980000002 cycles: 2960470849 heartbeat IPC: 0.399302 cumulative IPC: 0.301045 (Simulation time: 0 hr 53 min 2 sec) 
Heartbeat CPU 0 instructions: 990000000 cycles: 2983406938 heartbeat IPC: 0.435994 cumulative IPC: 0.302095 (Simulation time: 0 hr 53 min 35 sec) 
Heartbeat CPU 0 instructions: 1000000002 cycles: 3024565442 heartbeat IPC: 0.242963 cumulative IPC: 0.30128 (Simulation time: 0 hr 54 min 7 sec) 
Heartbeat CPU 0 instructions: 1010000000 cycles: 3052282476 heartbeat IPC: 0.360789 cumulative IPC: 0.301828 (Simulation time: 0 hr 54 min 40 sec) 
Heartbeat CPU 0 instructions: 1020000002 cycles: 3082554526 heartbeat IPC: 0.330338 cumulative IPC: 0.302111 (Simulation time: 0 hr 55 min 13 sec) 
Heartbeat CPU 0 instructions: 1030000001 cycles: 3135281440 heartbeat IPC: 0.189656 cumulative IPC: 0.300197 (Simulation time: 0 hr 55 min 50 sec) 
Heartbeat CPU 0 instructions: 1040000000 cycles: 3168332984 heartbeat IPC: 0.302558 cumulative IPC: 0.300222 (Simulation time: 0 hr 56 min 25 sec) 
Heartbeat CPU 0 instructions: 1050000001 cycles: 3198749921 heartbeat IPC: 0.328764 cumulative IPC: 0.300497 (Simulation time: 0 hr 56 min 57 sec) 
Heartbeat CPU 0 instructions: 1060000002 cycles: 3228888858 heartbeat IPC: 0.331797 cumulative IPC: 0.300792 (Simulation time: 0 hr 57 min 27 sec) 
Heartbeat CPU 0 instructions: 1070000001 cycles: 3251273875 heartbeat IPC: 0.446727 cumulative IPC: 0.301809 (Simulation time: 0 hr 57 min 59 sec) 
Heartbeat CPU 0 instructions: 1080000001 cycles: 3285396011 heartbeat IPC: 0.293065 cumulative IPC: 0.301717 (Simulation time: 0 hr 58 min 29 sec) 
Heartbeat CPU 0 instructions: 1090000002 cycles: 3329484715 heartbeat IPC: 0.226815 cumulative IPC: 0.300714 (Simulation time: 0 hr 59 min 4 sec) 
Heartbeat CPU 0 instructions: 1100000000 cycles: 3371260696 heartbeat IPC: 0.239372 cumulative IPC: 0.299945 (Simulation time: 0 hr 59 min 39 sec) 
Finished CPU 0 instructions: 1000000000 cycles: 3333945212 cumulative IPC: 0.299945 (Simulation time: 0 hr 59 min 39 sec) 

ChampSim completed all CPUs

Region of Interest Statistics

CPU 0 cumulative IPC: 0.299945 instructions: 1000000000 cycles: 3333945212
L1D TOTAL     ACCESS:  363277907  HIT:  332798885  MISS:   30479022
L1D LOAD      ACCESS:  139596114  HIT:  109123269  MISS:   30472845
L1D RFO       ACCESS:  223681793  HIT:  223675616  MISS:       6177
L1D PREFETCH  ACCESS:          0  HIT:          0  MISS:          0
L1D WRITEBACK ACCESS:          0  HIT:          0  MISS:          0
L1D PREFETCH  REQUESTED:          0  ISSUED:          0  USEFUL:          0  USELESS:          0
L1D AVERAGE MISS LATENCY: 234.447 cycles
L1I TOTAL     ACCESS:  185291234  HIT:  185291234  MISS:          0
L1I LOAD      ACCESS:  185291234  HIT:  185291234  MISS:          0
L1I RFO       ACCESS:          0  HIT:          0  MISS:          0
L1I PREFETCH  ACCESS:          0  HIT:          0  MISS:          0
L1I WRITEBACK ACCESS:          0  HIT:          0  MISS:          0
L1I PREFETCH  REQUESTED:          0  ISSUED:          0  USEFUL:          0  USELESS:          0
L1I AVERAGE MISS LATENCY: -nan cycles
L2C TOTAL     ACCESS:   43857698  HIT:   14162116  MISS:   29695582
L2C LOAD      ACCESS:   30468989  HIT:     807464  MISS:   29661525
L2C RFO       ACCESS:       6177  HIT:       5321  MISS:        856
L2C PREFETCH  ACCESS:          0  HIT:          0  MISS:          0
L2C WRITEBACK ACCESS:   13382532  HIT:   13349331  MISS:      33201
L2C PREFETCH  REQUESTED:          0  ISSUED:          0  USEFUL:          0  USELESS:          0
L2C AVERAGE MISS LATENCY: 217.22 cycles
LLC TOTAL     ACCESS:   42436413  HIT:    2346724  MISS:   40089689
LLC LOAD      ACCESS:   29661436  HIT:     918128  MISS:   28743308
LLC RFO       ACCESS:        856  HIT:        573  MISS:        283
LLC PREFETCH  ACCESS:          0  HIT:          0  MISS:          0
LLC WRITEBACK ACCESS:   12774121  HIT:    1428023  MISS:   11346098
LLC PREFETCH  REQUESTED:          0  ISSUED:          0  USEFUL:          0  USELESS:          0
LLC AVERAGE MISS LATENCY: 129.475 cycles
Major fault: 0 Minor fault: 389068

DRAM Statistics
 CHANNEL 0
 RQ ROW_BUFFER_HIT:    6193718  ROW_BUFFER_MISS:   22549830
 DBUS_CONGESTED:   16772065
 WQ ROW_BUFFER_HIT:    3963094  ROW_BUFFER_MISS:    8269616  FULL:          0

 AVG_CONGESTED_CYCLE: 6

CPU 0 Branch Prediction Accuracy: 96.6969% MPKI: 2.99068 Average ROB Occupancy at Mispredict: 89.8735

Branch types
NOT_BRANCH: 909457762 90.9458%
BRANCH_DIRECT_JUMP: 2039619 0.203962%
BRANCH_INDIRECT: 0 0%
BRANCH_CONDITIONAL: 86463194 8.64632%
BRANCH_DIRECT_CALL: 1019527 0.101953%
BRANCH_INDIRECT_CALL: 0 0%
BRANCH_RETURN: 1019528 0.101953%
BRANCH_OTHER: 0 0%

