
*** ChampSim Multicore Out-of-Order Simulator ***

Warmup Instructions: 100000000
Simulation Instructions: 1000000000
Number of CPUs: 1
LLC sets: 2048
LLC ways: 16
Off-chip DRAM Size: 4096 MB Channels: 1 Width: 64-bit Data Rate: 3200 MT/s

CPU 0 runs /scratch/user/kevin.weston/dpc3-traces/429.champsimtrace.xz
CPU 0 Bimodal branch predictor
Per-line RRPV Initialized
PRRIP State Initialized
Assign SAMPLER_SET[0]: 454  LLC: 2048
SAMPLER_SET[0]: 454
Assign SAMPLER_SET[1]: 1662  LLC: 2048
SAMPLER_SET[1]: 1662
Assign SAMPLER_SET[2]: 1921  LLC: 2048
SAMPLER_SET[2]: 1921
Assign SAMPLER_SET[3]: 1131  LLC: 2048
SAMPLER_SET[3]: 1131
Assign SAMPLER_SET[4]: 331  LLC: 2048
SAMPLER_SET[4]: 331
Assign SAMPLER_SET[5]: 1531  LLC: 2048
SAMPLER_SET[5]: 1531
Assign SAMPLER_SET[6]: 482  LLC: 2048
SAMPLER_SET[6]: 482
Assign SAMPLER_SET[7]: 1275  LLC: 2048
SAMPLER_SET[7]: 1275
Assign SAMPLER_SET[8]: 1876  LLC: 2048
SAMPLER_SET[8]: 1876
Assign SAMPLER_SET[9]: 2038  LLC: 2048
SAMPLER_SET[9]: 2038
Assign SAMPLER_SET[10]: 701  LLC: 2048
SAMPLER_SET[10]: 701
Assign SAMPLER_SET[11]: 479  LLC: 2048
SAMPLER_SET[11]: 479
Assign SAMPLER_SET[12]: 892  LLC: 2048
SAMPLER_SET[12]: 892
Assign SAMPLER_SET[13]: 1820  LLC: 2048
SAMPLER_SET[13]: 1820
Assign SAMPLER_SET[14]: 1505  LLC: 2048
SAMPLER_SET[14]: 1505
Assign SAMPLER_SET[15]: 1159  LLC: 2048
SAMPLER_SET[15]: 1159
Assign SAMPLER_SET[16]: 513  LLC: 2048
SAMPLER_SET[16]: 513
Assign SAMPLER_SET[17]: 703  LLC: 2048
SAMPLER_SET[17]: 703
Assign SAMPLER_SET[18]: 561  LLC: 2048
SAMPLER_SET[18]: 561
Assign SAMPLER_SET[19]: 990  LLC: 2048
SAMPLER_SET[19]: 990
Assign SAMPLER_SET[20]: 342  LLC: 2048
SAMPLER_SET[20]: 342
Assign SAMPLER_SET[21]: 882  LLC: 2048
SAMPLER_SET[21]: 882
Assign SAMPLER_SET[22]: 15  LLC: 2048
SAMPLER_SET[22]: 15
Assign SAMPLER_SET[23]: 71  LLC: 2048
SAMPLER_SET[23]: 71
Assign SAMPLER_SET[24]: 1127  LLC: 2048
SAMPLER_SET[24]: 1127
Assign SAMPLER_SET[25]: 1382  LLC: 2048
SAMPLER_SET[25]: 1382
Assign SAMPLER_SET[26]: 647  LLC: 2048
SAMPLER_SET[26]: 647
Assign SAMPLER_SET[27]: 857  LLC: 2048
SAMPLER_SET[27]: 857
Assign SAMPLER_SET[28]: 1450  LLC: 2048
SAMPLER_SET[28]: 1450
Assign SAMPLER_SET[29]: 1160  LLC: 2048
SAMPLER_SET[29]: 1160
Assign SAMPLER_SET[30]: 1852  LLC: 2048
SAMPLER_SET[30]: 1852
Assign SAMPLER_SET[31]: 1881  LLC: 2048
SAMPLER_SET[31]: 1881
Assign SAMPLER_SET[32]: 1770  LLC: 2048
SAMPLER_SET[32]: 1770
Assign SAMPLER_SET[33]: 1622  LLC: 2048
SAMPLER_SET[33]: 1622
Assign SAMPLER_SET[34]: 275  LLC: 2048
SAMPLER_SET[34]: 275
Assign SAMPLER_SET[35]: 635  LLC: 2048
SAMPLER_SET[35]: 635
Assign SAMPLER_SET[36]: 466  LLC: 2048
SAMPLER_SET[36]: 466
Assign SAMPLER_SET[37]: 1413  LLC: 2048
SAMPLER_SET[37]: 1413
Assign SAMPLER_SET[38]: 417  LLC: 2048
SAMPLER_SET[38]: 417
Assign SAMPLER_SET[39]: 472  LLC: 2048
SAMPLER_SET[39]: 472
Assign SAMPLER_SET[40]: 1340  LLC: 2048
SAMPLER_SET[40]: 1340
Assign SAMPLER_SET[41]: 852  LLC: 2048
SAMPLER_SET[41]: 852
Assign SAMPLER_SET[42]: 1365  LLC: 2048
SAMPLER_SET[42]: 1365
Assign SAMPLER_SET[43]: 47  LLC: 2048
SAMPLER_SET[43]: 47
Assign SAMPLER_SET[44]: 823  LLC: 2048
SAMPLER_SET[44]: 823
Assign SAMPLER_SET[45]: 686  LLC: 2048
SAMPLER_SET[45]: 686
Assign SAMPLER_SET[46]: 1637  LLC: 2048
SAMPLER_SET[46]: 1637
Assign SAMPLER_SET[47]: 1115  LLC: 2048
SAMPLER_SET[47]: 1115
Assign SAMPLER_SET[48]: 986  LLC: 2048
SAMPLER_SET[48]: 986
Assign SAMPLER_SET[49]: 258  LLC: 2048
SAMPLER_SET[49]: 258
Assign SAMPLER_SET[50]: 633  LLC: 2048
SAMPLER_SET[50]: 633
Assign SAMPLER_SET[51]: 920  LLC: 2048
SAMPLER_SET[51]: 920
Assign SAMPLER_SET[52]: 204  LLC: 2048
SAMPLER_SET[52]: 204
Assign SAMPLER_SET[53]: 227  LLC: 2048
SAMPLER_SET[53]: 227
Assign SAMPLER_SET[54]: 1818  LLC: 2048
SAMPLER_SET[54]: 1818
Assign SAMPLER_SET[55]: 886  LLC: 2048
SAMPLER_SET[55]: 886
Assign SAMPLER_SET[56]: 1422  LLC: 2048
SAMPLER_SET[56]: 1422
Assign SAMPLER_SET[57]: 607  LLC: 2048
SAMPLER_SET[57]: 607
Assign SAMPLER_SET[58]: 217  LLC: 2048
SAMPLER_SET[58]: 217
Assign SAMPLER_SET[59]: 1945  LLC: 2048
SAMPLER_SET[59]: 1945
Assign SAMPLER_SET[60]: 143  LLC: 2048
SAMPLER_SET[60]: 143
Assign SAMPLER_SET[61]: 1311  LLC: 2048
SAMPLER_SET[61]: 1311
Assign SAMPLER_SET[62]: 319  LLC: 2048
SAMPLER_SET[62]: 319
Assign SAMPLER_SET[63]: 1846  LLC: 2048
SAMPLER_SET[63]: 1846
Heartbeat CPU 0 instructions: 10000002 cycles: 3653050 heartbeat IPC: 2.73744 cumulative IPC: 2.73744 (Simulation time: 0 hr 0 min 24 sec) 
Heartbeat CPU 0 instructions: 20000000 cycles: 7547799 heartbeat IPC: 2.56756 cumulative IPC: 2.64978 (Simulation time: 0 hr 0 min 48 sec) 
Heartbeat CPU 0 instructions: 30000003 cycles: 11150869 heartbeat IPC: 2.77541 cumulative IPC: 2.69037 (Simulation time: 0 hr 1 min 11 sec) 
Heartbeat CPU 0 instructions: 40000001 cycles: 14754296 heartbeat IPC: 2.77514 cumulative IPC: 2.71107 (Simulation time: 0 hr 1 min 35 sec) 
Heartbeat CPU 0 instructions: 50000002 cycles: 18358970 heartbeat IPC: 2.77418 cumulative IPC: 2.72346 (Simulation time: 0 hr 2 min 0 sec) 
Heartbeat CPU 0 instructions: 60000000 cycles: 22135449 heartbeat IPC: 2.64797 cumulative IPC: 2.71058 (Simulation time: 0 hr 2 min 24 sec) 
Heartbeat CPU 0 instructions: 70000003 cycles: 25796934 heartbeat IPC: 2.73113 cumulative IPC: 2.7135 (Simulation time: 0 hr 2 min 48 sec) 
Heartbeat CPU 0 instructions: 80000003 cycles: 29601301 heartbeat IPC: 2.62856 cumulative IPC: 2.70258 (Simulation time: 0 hr 3 min 13 sec) 
Heartbeat CPU 0 instructions: 90000000 cycles: 33370806 heartbeat IPC: 2.65287 cumulative IPC: 2.69697 (Simulation time: 0 hr 3 min 37 sec) 
Heartbeat CPU 0 instructions: 100000002 cycles: 37112172 heartbeat IPC: 2.67282 cumulative IPC: 2.69453 (Simulation time: 0 hr 4 min 1 sec) 

Warmup complete CPU 0 instructions: 100000002 cycles: 37112172 (Simulation time: 0 hr 4 min 1 sec) 

Heartbeat CPU 0 instructions: 110000000 cycles: 64054204 heartbeat IPC: 0.371167 cumulative IPC: 0.371167 (Simulation time: 0 hr 4 min 31 sec) 
Heartbeat CPU 0 instructions: 120000002 cycles: 87968864 heartbeat IPC: 0.418154 cumulative IPC: 0.393262 (Simulation time: 0 hr 4 min 59 sec) 
Heartbeat CPU 0 instructions: 130000000 cycles: 121625758 heartbeat IPC: 0.297116 cumulative IPC: 0.354972 (Simulation time: 0 hr 5 min 32 sec) 
Heartbeat CPU 0 instructions: 140000002 cycles: 150707495 heartbeat IPC: 0.343858 cumulative IPC: 0.352127 (Simulation time: 0 hr 6 min 7 sec) 
Heartbeat CPU 0 instructions: 150000003 cycles: 178539401 heartbeat IPC: 0.3593 cumulative IPC: 0.353539 (Simulation time: 0 hr 6 min 39 sec) 
Heartbeat CPU 0 instructions: 160000002 cycles: 207494309 heartbeat IPC: 0.345365 cumulative IPC: 0.35215 (Simulation time: 0 hr 7 min 10 sec) 
Heartbeat CPU 0 instructions: 170000001 cycles: 227127494 heartbeat IPC: 0.509342 cumulative IPC: 0.368391 (Simulation time: 0 hr 7 min 40 sec) 
Heartbeat CPU 0 instructions: 180000000 cycles: 247212035 heartbeat IPC: 0.497895 cumulative IPC: 0.380771 (Simulation time: 0 hr 8 min 9 sec) 
Heartbeat CPU 0 instructions: 190000001 cycles: 273724633 heartbeat IPC: 0.377179 cumulative IPC: 0.380369 (Simulation time: 0 hr 8 min 42 sec) 
Heartbeat CPU 0 instructions: 200000001 cycles: 291404299 heartbeat IPC: 0.565622 cumulative IPC: 0.393248 (Simulation time: 0 hr 9 min 11 sec) 
Heartbeat CPU 0 instructions: 210000003 cycles: 315213895 heartbeat IPC: 0.419999 cumulative IPC: 0.395539 (Simulation time: 0 hr 9 min 38 sec) 
Heartbeat CPU 0 instructions: 220000000 cycles: 347055439 heartbeat IPC: 0.314055 cumulative IPC: 0.387168 (Simulation time: 0 hr 10 min 11 sec) 
Heartbeat CPU 0 instructions: 230000003 cycles: 382325846 heartbeat IPC: 0.283524 cumulative IPC: 0.376578 (Simulation time: 0 hr 10 min 40 sec) 
Heartbeat CPU 0 instructions: 240000003 cycles: 415717628 heartbeat IPC: 0.299475 cumulative IPC: 0.369778 (Simulation time: 0 hr 11 min 13 sec) 
Heartbeat CPU 0 instructions: 250000003 cycles: 445199483 heartbeat IPC: 0.339192 cumulative IPC: 0.367568 (Simulation time: 0 hr 11 min 45 sec) 
Heartbeat CPU 0 instructions: 260000002 cycles: 467442753 heartbeat IPC: 0.449574 cumulative IPC: 0.371807 (Simulation time: 0 hr 12 min 13 sec) 
Heartbeat CPU 0 instructions: 270000002 cycles: 486919646 heartbeat IPC: 0.513429 cumulative IPC: 0.377939 (Simulation time: 0 hr 12 min 43 sec) 
Heartbeat CPU 0 instructions: 280000000 cycles: 508421068 heartbeat IPC: 0.465085 cumulative IPC: 0.381915 (Simulation time: 0 hr 13 min 9 sec) 
Heartbeat CPU 0 instructions: 290000000 cycles: 533412108 heartbeat IPC: 0.400143 cumulative IPC: 0.382833 (Simulation time: 0 hr 13 min 39 sec) 
Heartbeat CPU 0 instructions: 300000001 cycles: 562671413 heartbeat IPC: 0.341772 cumulative IPC: 0.380547 (Simulation time: 0 hr 14 min 13 sec) 
Heartbeat CPU 0 instructions: 310000002 cycles: 593263200 heartbeat IPC: 0.326885 cumulative IPC: 0.377595 (Simulation time: 0 hr 14 min 48 sec) 
Heartbeat CPU 0 instructions: 320000000 cycles: 626240641 heartbeat IPC: 0.303238 cumulative IPC: 0.373433 (Simulation time: 0 hr 15 min 17 sec) 
Heartbeat CPU 0 instructions: 330000000 cycles: 644980865 heartbeat IPC: 0.533612 cumulative IPC: 0.378371 (Simulation time: 0 hr 15 min 47 sec) 
Heartbeat CPU 0 instructions: 340000002 cycles: 671422183 heartbeat IPC: 0.378196 cumulative IPC: 0.378364 (Simulation time: 0 hr 16 min 15 sec) 
Heartbeat CPU 0 instructions: 350000003 cycles: 702908877 heartbeat IPC: 0.317594 cumulative IPC: 0.37549 (Simulation time: 0 hr 16 min 46 sec) 
Heartbeat CPU 0 instructions: 360000002 cycles: 727183550 heartbeat IPC: 0.411952 cumulative IPC: 0.376773 (Simulation time: 0 hr 17 min 14 sec) 
Heartbeat CPU 0 instructions: 370000001 cycles: 763642311 heartbeat IPC: 0.274282 cumulative IPC: 0.371629 (Simulation time: 0 hr 17 min 47 sec) 
Heartbeat CPU 0 instructions: 380000002 cycles: 784418589 heartbeat IPC: 0.481318 cumulative IPC: 0.374679 (Simulation time: 0 hr 18 min 18 sec) 
Heartbeat CPU 0 instructions: 390000001 cycles: 820762779 heartbeat IPC: 0.275147 cumulative IPC: 0.370063 (Simulation time: 0 hr 18 min 53 sec) 
Heartbeat CPU 0 instructions: 400000000 cycles: 853064701 heartbeat IPC: 0.309579 cumulative IPC: 0.367668 (Simulation time: 0 hr 19 min 25 sec) 
Heartbeat CPU 0 instructions: 410000001 cycles: 875034437 heartbeat IPC: 0.455172 cumulative IPC: 0.369963 (Simulation time: 0 hr 19 min 55 sec) 
Heartbeat CPU 0 instructions: 420000003 cycles: 899954560 heartbeat IPC: 0.401282 cumulative IPC: 0.370867 (Simulation time: 0 hr 20 min 26 sec) 
Heartbeat CPU 0 instructions: 430000002 cycles: 922335045 heartbeat IPC: 0.446818 cumulative IPC: 0.372787 (Simulation time: 0 hr 20 min 55 sec) 
Heartbeat CPU 0 instructions: 440000000 cycles: 941019731 heartbeat IPC: 0.535198 cumulative IPC: 0.376145 (Simulation time: 0 hr 21 min 23 sec) 
Heartbeat CPU 0 instructions: 450000001 cycles: 961856788 heartbeat IPC: 0.479914 cumulative IPC: 0.378483 (Simulation time: 0 hr 21 min 51 sec) 
Heartbeat CPU 0 instructions: 460000000 cycles: 991810671 heartbeat IPC: 0.333847 cumulative IPC: 0.377082 (Simulation time: 0 hr 22 min 18 sec) 
Heartbeat CPU 0 instructions: 470000000 cycles: 1015404258 heartbeat IPC: 0.423844 cumulative IPC: 0.37821 (Simulation time: 0 hr 22 min 49 sec) 
Heartbeat CPU 0 instructions: 480000000 cycles: 1046330283 heartbeat IPC: 0.323352 cumulative IPC: 0.376529 (Simulation time: 0 hr 23 min 27 sec) 
Heartbeat CPU 0 instructions: 490000001 cycles: 1068459232 heartbeat IPC: 0.451897 cumulative IPC: 0.378146 (Simulation time: 0 hr 23 min 56 sec) 
Heartbeat CPU 0 instructions: 500000000 cycles: 1103566356 heartbeat IPC: 0.284842 cumulative IPC: 0.375075 (Simulation time: 0 hr 24 min 28 sec) 
Heartbeat CPU 0 instructions: 510000001 cycles: 1131519090 heartbeat IPC: 0.357747 cumulative IPC: 0.374632 (Simulation time: 0 hr 25 min 0 sec) 
Heartbeat CPU 0 instructions: 520000002 cycles: 1156508011 heartbeat IPC: 0.400177 cumulative IPC: 0.375202 (Simulation time: 0 hr 25 min 30 sec) 
Heartbeat CPU 0 instructions: 530000000 cycles: 1186710109 heartbeat IPC: 0.331103 cumulative IPC: 0.374044 (Simulation time: 0 hr 26 min 2 sec) 
Heartbeat CPU 0 instructions: 540000000 cycles: 1212058811 heartbeat IPC: 0.394498 cumulative IPC: 0.374485 (Simulation time: 0 hr 26 min 33 sec) 
Heartbeat CPU 0 instructions: 550000000 cycles: 1247478928 heartbeat IPC: 0.282325 cumulative IPC: 0.371788 (Simulation time: 0 hr 27 min 9 sec) 
Heartbeat CPU 0 instructions: 560000003 cycles: 1284960963 heartbeat IPC: 0.266795 cumulative IPC: 0.368634 (Simulation time: 0 hr 27 min 42 sec) 
Heartbeat CPU 0 instructions: 570000000 cycles: 1313943715 heartbeat IPC: 0.345033 cumulative IPC: 0.368099 (Simulation time: 0 hr 28 min 12 sec) 
Heartbeat CPU 0 instructions: 580000003 cycles: 1340634325 heartbeat IPC: 0.374664 cumulative IPC: 0.368233 (Simulation time: 0 hr 28 min 42 sec) 
Heartbeat CPU 0 instructions: 590000000 cycles: 1369312620 heartbeat IPC: 0.348696 cumulative IPC: 0.367813 (Simulation time: 0 hr 29 min 12 sec) 
Heartbeat CPU 0 instructions: 600000000 cycles: 1389124229 heartbeat IPC: 0.504755 cumulative IPC: 0.369819 (Simulation time: 0 hr 29 min 40 sec) 
Heartbeat CPU 0 instructions: 610000003 cycles: 1411553162 heartbeat IPC: 0.445853 cumulative IPC: 0.37106 (Simulation time: 0 hr 30 min 7 sec) 
Heartbeat CPU 0 instructions: 620000000 cycles: 1434560552 heartbeat IPC: 0.434643 cumulative IPC: 0.372107 (Simulation time: 0 hr 30 min 36 sec) 
Heartbeat CPU 0 instructions: 630000003 cycles: 1474363417 heartbeat IPC: 0.251238 cumulative IPC: 0.368759 (Simulation time: 0 hr 31 min 12 sec) 
Heartbeat CPU 0 instructions: 640000000 cycles: 1499914280 heartbeat IPC: 0.391376 cumulative IPC: 0.369155 (Simulation time: 0 hr 31 min 43 sec) 
Heartbeat CPU 0 instructions: 650000001 cycles: 1537506402 heartbeat IPC: 0.266013 cumulative IPC: 0.36657 (Simulation time: 0 hr 32 min 14 sec) 
Heartbeat CPU 0 instructions: 660000000 cycles: 1562267058 heartbeat IPC: 0.403866 cumulative IPC: 0.367176 (Simulation time: 0 hr 32 min 41 sec) 
Heartbeat CPU 0 instructions: 670000002 cycles: 1585835333 heartbeat IPC: 0.424299 cumulative IPC: 0.368045 (Simulation time: 0 hr 33 min 10 sec) 
Heartbeat CPU 0 instructions: 680000000 cycles: 1611950250 heartbeat IPC: 0.382923 cumulative IPC: 0.368292 (Simulation time: 0 hr 33 min 41 sec) 
Heartbeat CPU 0 instructions: 690000002 cycles: 1641741856 heartbeat IPC: 0.335665 cumulative IPC: 0.367686 (Simulation time: 0 hr 34 min 9 sec) 
Heartbeat CPU 0 instructions: 700000000 cycles: 1667873292 heartbeat IPC: 0.382681 cumulative IPC: 0.367926 (Simulation time: 0 hr 34 min 40 sec) 
Heartbeat CPU 0 instructions: 710000003 cycles: 1692817474 heartbeat IPC: 0.400895 cumulative IPC: 0.368423 (Simulation time: 0 hr 35 min 14 sec) 
Heartbeat CPU 0 instructions: 720000001 cycles: 1726352574 heartbeat IPC: 0.298195 cumulative IPC: 0.367029 (Simulation time: 0 hr 35 min 49 sec) 
Heartbeat CPU 0 instructions: 730000003 cycles: 1751675724 heartbeat IPC: 0.394896 cumulative IPC: 0.36744 (Simulation time: 0 hr 36 min 20 sec) 
Heartbeat CPU 0 instructions: 740000001 cycles: 1774023493 heartbeat IPC: 0.447472 cumulative IPC: 0.36847 (Simulation time: 0 hr 36 min 50 sec) 
Heartbeat CPU 0 instructions: 750000003 cycles: 1793637180 heartbeat IPC: 0.509848 cumulative IPC: 0.370049 (Simulation time: 0 hr 37 min 18 sec) 
Heartbeat CPU 0 instructions: 760000003 cycles: 1820388577 heartbeat IPC: 0.373812 cumulative IPC: 0.370105 (Simulation time: 0 hr 37 min 46 sec) 
Heartbeat CPU 0 instructions: 770000000 cycles: 1857837061 heartbeat IPC: 0.267033 cumulative IPC: 0.367985 (Simulation time: 0 hr 38 min 17 sec) 
Heartbeat CPU 0 instructions: 780000000 cycles: 1883138120 heartbeat IPC: 0.39524 cumulative IPC: 0.368359 (Simulation time: 0 hr 38 min 48 sec) 
Heartbeat CPU 0 instructions: 790000001 cycles: 1914541920 heartbeat IPC: 0.318433 cumulative IPC: 0.367524 (Simulation time: 0 hr 39 min 22 sec) 
Heartbeat CPU 0 instructions: 800000002 cycles: 1945119300 heartbeat IPC: 0.327039 cumulative IPC: 0.366875 (Simulation time: 0 hr 39 min 54 sec) 
Heartbeat CPU 0 instructions: 810000003 cycles: 1977351549 heartbeat IPC: 0.310248 cumulative IPC: 0.365934 (Simulation time: 0 hr 40 min 22 sec) 
Heartbeat CPU 0 instructions: 820000002 cycles: 1998127235 heartbeat IPC: 0.481332 cumulative IPC: 0.367157 (Simulation time: 0 hr 40 min 49 sec) 
Heartbeat CPU 0 instructions: 830000002 cycles: 2016871171 heartbeat IPC: 0.533506 cumulative IPC: 0.368732 (Simulation time: 0 hr 41 min 19 sec) 
Heartbeat CPU 0 instructions: 840000002 cycles: 2044559369 heartbeat IPC: 0.361165 cumulative IPC: 0.368627 (Simulation time: 0 hr 41 min 50 sec) 
Heartbeat CPU 0 instructions: 850000001 cycles: 2067972531 heartbeat IPC: 0.42711 cumulative IPC: 0.369302 (Simulation time: 0 hr 42 min 20 sec) 
Heartbeat CPU 0 instructions: 860000001 cycles: 2097291897 heartbeat IPC: 0.341071 cumulative IPC: 0.3689 (Simulation time: 0 hr 42 min 51 sec) 
Heartbeat CPU 0 instructions: 870000000 cycles: 2121561673 heartbeat IPC: 0.412035 cumulative IPC: 0.369402 (Simulation time: 0 hr 43 min 20 sec) 
Heartbeat CPU 0 instructions: 880000000 cycles: 2155204921 heartbeat IPC: 0.297236 cumulative IPC: 0.368256 (Simulation time: 0 hr 43 min 57 sec) 
Heartbeat CPU 0 instructions: 890000000 cycles: 2182744256 heartbeat IPC: 0.363117 cumulative IPC: 0.36819 (Simulation time: 0 hr 44 min 28 sec) 
Heartbeat CPU 0 instructions: 900000001 cycles: 2208192145 heartbeat IPC: 0.39296 cumulative IPC: 0.36848 (Simulation time: 0 hr 45 min 0 sec) 
Heartbeat CPU 0 instructions: 910000002 cycles: 2228503998 heartbeat IPC: 0.492323 cumulative IPC: 0.369628 (Simulation time: 0 hr 45 min 30 sec) 
Heartbeat CPU 0 instructions: 920000001 cycles: 2251376738 heartbeat IPC: 0.437202 cumulative IPC: 0.370326 (Simulation time: 0 hr 45 min 58 sec) 
Heartbeat CPU 0 instructions: 930000000 cycles: 2277283492 heartbeat IPC: 0.386 cumulative IPC: 0.370507 (Simulation time: 0 hr 46 min 26 sec) 
Heartbeat CPU 0 instructions: 940000001 cycles: 2299780077 heartbeat IPC: 0.444512 cumulative IPC: 0.371243 (Simulation time: 0 hr 46 min 56 sec) 
Heartbeat CPU 0 instructions: 950000003 cycles: 2330380040 heartbeat IPC: 0.326798 cumulative IPC: 0.37065 (Simulation time: 0 hr 47 min 33 sec) 
Heartbeat CPU 0 instructions: 960000001 cycles: 2352252403 heartbeat IPC: 0.457198 cumulative IPC: 0.371468 (Simulation time: 0 hr 48 min 5 sec) 
Heartbeat CPU 0 instructions: 970000002 cycles: 2379144761 heartbeat IPC: 0.371853 cumulative IPC: 0.371472 (Simulation time: 0 hr 48 min 33 sec) 
Heartbeat CPU 0 instructions: 980000002 cycles: 2400733194 heartbeat IPC: 0.463211 cumulative IPC: 0.37231 (Simulation time: 0 hr 49 min 2 sec) 
Heartbeat CPU 0 instructions: 990000000 cycles: 2420858546 heartbeat IPC: 0.496886 cumulative IPC: 0.373362 (Simulation time: 0 hr 49 min 33 sec) 
Heartbeat CPU 0 instructions: 1000000002 cycles: 2452132992 heartbeat IPC: 0.31975 cumulative IPC: 0.372668 (Simulation time: 0 hr 50 min 2 sec) 
Heartbeat CPU 0 instructions: 1010000000 cycles: 2474917827 heartbeat IPC: 0.438888 cumulative IPC: 0.373287 (Simulation time: 0 hr 50 min 32 sec) 
Heartbeat CPU 0 instructions: 1020000002 cycles: 2499728094 heartbeat IPC: 0.403059 cumulative IPC: 0.373586 (Simulation time: 0 hr 51 min 2 sec) 
Heartbeat CPU 0 instructions: 1030000000 cycles: 2540380750 heartbeat IPC: 0.245986 cumulative IPC: 0.371514 (Simulation time: 0 hr 51 min 35 sec) 
Heartbeat CPU 0 instructions: 1040000000 cycles: 2568960446 heartbeat IPC: 0.349899 cumulative IPC: 0.37127 (Simulation time: 0 hr 52 min 8 sec) 
Heartbeat CPU 0 instructions: 1050000001 cycles: 2594683293 heartbeat IPC: 0.388759 cumulative IPC: 0.371446 (Simulation time: 0 hr 52 min 38 sec) 
Heartbeat CPU 0 instructions: 1060000002 cycles: 2619227645 heartbeat IPC: 0.407426 cumulative IPC: 0.371788 (Simulation time: 0 hr 53 min 5 sec) 
Heartbeat CPU 0 instructions: 1070000001 cycles: 2638607005 heartbeat IPC: 0.516013 cumulative IPC: 0.372863 (Simulation time: 0 hr 53 min 36 sec) 
Heartbeat CPU 0 instructions: 1080000001 cycles: 2665566307 heartbeat IPC: 0.370929 cumulative IPC: 0.372843 (Simulation time: 0 hr 54 min 4 sec) 
Heartbeat CPU 0 instructions: 1090000002 cycles: 2698679348 heartbeat IPC: 0.301996 cumulative IPC: 0.371961 (Simulation time: 0 hr 54 min 34 sec) 
Heartbeat CPU 0 instructions: 1100000000 cycles: 2730225708 heartbeat IPC: 0.316994 cumulative IPC: 0.371317 (Simulation time: 0 hr 55 min 5 sec) 
Finished CPU 0 instructions: 1000000000 cycles: 2693113595 cumulative IPC: 0.371317 (Simulation time: 0 hr 55 min 5 sec) 

ChampSim completed all CPUs

Region of Interest Statistics

CPU 0 cumulative IPC: 0.371317 instructions: 1000000000 cycles: 2693113595
L1D TOTAL     ACCESS:  363165941  HIT:  332686753  MISS:   30479188
L1D LOAD      ACCESS:  139337246  HIT:  108864235  MISS:   30473011
L1D RFO       ACCESS:  223828695  HIT:  223822518  MISS:       6177
L1D PREFETCH  ACCESS:          0  HIT:          0  MISS:          0
L1D WRITEBACK ACCESS:          0  HIT:          0  MISS:          0
L1D PREFETCH  REQUESTED:          0  ISSUED:          0  USEFUL:          0  USELESS:          0
L1D AVERAGE MISS LATENCY: 198.626 cycles
L1I TOTAL     ACCESS:  184564027  HIT:  184564027  MISS:          0
L1I LOAD      ACCESS:  184564027  HIT:  184564027  MISS:          0
L1I RFO       ACCESS:          0  HIT:          0  MISS:          0
L1I PREFETCH  ACCESS:          0  HIT:          0  MISS:          0
L1I WRITEBACK ACCESS:          0  HIT:          0  MISS:          0
L1I PREFETCH  REQUESTED:          0  ISSUED:          0  USEFUL:          0  USELESS:          0
L1I AVERAGE MISS LATENCY: -nan cycles
L2C TOTAL     ACCESS:   43858021  HIT:   14161877  MISS:   29696144
L2C LOAD      ACCESS:   30469188  HIT:     807278  MISS:   29661910
L2C RFO       ACCESS:       6177  HIT:       5409  MISS:        768
L2C PREFETCH  ACCESS:          0  HIT:          0  MISS:          0
L2C WRITEBACK ACCESS:   13382656  HIT:   13349190  MISS:      33466
L2C PREFETCH  REQUESTED:          0  ISSUED:          0  USEFUL:          0  USELESS:          0
L2C AVERAGE MISS LATENCY: 180.464 cycles
LLC TOTAL     ACCESS:   42436982  HIT:    9072466  MISS:   33364516
LLC LOAD      ACCESS:   29661864  HIT:    8120043  MISS:   21541821
LLC RFO       ACCESS:        768  HIT:        474  MISS:        294
LLC PREFETCH  ACCESS:          0  HIT:          0  MISS:          0
LLC WRITEBACK ACCESS:   12774350  HIT:     951949  MISS:   11822401
LLC PREFETCH  REQUESTED:          0  ISSUED:          0  USEFUL:          0  USELESS:          0
LLC AVERAGE MISS LATENCY: 122.947 cycles
Major fault: 0 Minor fault: 389068
==============================
Perceptron RRIP Stats:
   Num Updates:          1421852
   Num Primary Trains:   6613
   Num Secondary Trains: 6945
==============================
primary_perceptron #0: 5 -3 1 -1 -3 -1 -1 -1 1 -1 3 1 5 -5 -3 -17 
secondary_perceptron #0: 3 -3 1 -3 -5 -1 -1 -1 -1 -3 1 1 3 -7 -7 -3 -3 -1 1 -1 -19 


DRAM Statistics
 CHANNEL 0
 RQ ROW_BUFFER_HIT:    3456928  ROW_BUFFER_MISS:   18084980
 DBUS_CONGESTED:   13706023
 WQ ROW_BUFFER_HIT:    2858726  ROW_BUFFER_MISS:    9710124  FULL:          0

 AVG_CONGESTED_CYCLE: 6

CPU 0 Branch Prediction Accuracy: 96.6969% MPKI: 2.99068 Average ROB Occupancy at Mispredict: 89.8438

Branch types
NOT_BRANCH: 909457762 90.9458%
BRANCH_DIRECT_JUMP: 2039619 0.203962%
BRANCH_INDIRECT: 0 0%
BRANCH_CONDITIONAL: 86463194 8.64632%
BRANCH_DIRECT_CALL: 1019527 0.101953%
BRANCH_INDIRECT_CALL: 0 0%
BRANCH_RETURN: 1019528 0.101953%
BRANCH_OTHER: 0 0%

