
*** ChampSim Multicore Out-of-Order Simulator ***

Warmup Instructions: 100000000
Simulation Instructions: 1000000000
Number of CPUs: 1
LLC sets: 2048
LLC ways: 16
Off-chip DRAM Size: 4096 MB Channels: 1 Width: 64-bit Data Rate: 3200 MT/s

CPU 0 runs /scratch/user/kevin.weston/dpc3-traces/450.champsimtrace.xz
CPU 0 Bimodal branch predictor
Initialize SRRIP state
Heartbeat CPU 0 instructions: 10000002 cycles: 4635975 heartbeat IPC: 2.15704 cumulative IPC: 2.15704 (Simulation time: 0 hr 0 min 25 sec) 
Heartbeat CPU 0 instructions: 20000001 cycles: 8707451 heartbeat IPC: 2.45611 cumulative IPC: 2.29688 (Simulation time: 0 hr 0 min 47 sec) 
Heartbeat CPU 0 instructions: 30000000 cycles: 12760847 heartbeat IPC: 2.46707 cumulative IPC: 2.35094 (Simulation time: 0 hr 1 min 8 sec) 
Heartbeat CPU 0 instructions: 40000002 cycles: 16786131 heartbeat IPC: 2.4843 cumulative IPC: 2.38292 (Simulation time: 0 hr 1 min 29 sec) 
Heartbeat CPU 0 instructions: 50000000 cycles: 20815014 heartbeat IPC: 2.48208 cumulative IPC: 2.40211 (Simulation time: 0 hr 1 min 50 sec) 
Heartbeat CPU 0 instructions: 60000002 cycles: 24853345 heartbeat IPC: 2.47627 cumulative IPC: 2.41416 (Simulation time: 0 hr 2 min 11 sec) 
Heartbeat CPU 0 instructions: 70000000 cycles: 28817804 heartbeat IPC: 2.52241 cumulative IPC: 2.42905 (Simulation time: 0 hr 2 min 32 sec) 
Heartbeat CPU 0 instructions: 80000001 cycles: 32836687 heartbeat IPC: 2.48825 cumulative IPC: 2.4363 (Simulation time: 0 hr 2 min 53 sec) 
Heartbeat CPU 0 instructions: 90000001 cycles: 36896617 heartbeat IPC: 2.4631 cumulative IPC: 2.43925 (Simulation time: 0 hr 3 min 15 sec) 
Heartbeat CPU 0 instructions: 100000003 cycles: 40979095 heartbeat IPC: 2.44949 cumulative IPC: 2.44027 (Simulation time: 0 hr 3 min 36 sec) 

Warmup complete CPU 0 instructions: 100000003 cycles: 40979095 (Simulation time: 0 hr 3 min 36 sec) 

Heartbeat CPU 0 instructions: 110000000 cycles: 88053410 heartbeat IPC: 0.21243 cumulative IPC: 0.21243 (Simulation time: 0 hr 4 min 9 sec) 
Heartbeat CPU 0 instructions: 120000003 cycles: 113435942 heartbeat IPC: 0.393972 cumulative IPC: 0.276026 (Simulation time: 0 hr 4 min 37 sec) 
Heartbeat CPU 0 instructions: 130000003 cycles: 148430277 heartbeat IPC: 0.285761 cumulative IPC: 0.279197 (Simulation time: 0 hr 5 min 8 sec) 
Heartbeat CPU 0 instructions: 140000003 cycles: 178756038 heartbeat IPC: 0.329753 cumulative IPC: 0.290324 (Simulation time: 0 hr 5 min 34 sec) 
Heartbeat CPU 0 instructions: 150000003 cycles: 208630806 heartbeat IPC: 0.334731 cumulative IPC: 0.298237 (Simulation time: 0 hr 6 min 0 sec) 
Heartbeat CPU 0 instructions: 160000002 cycles: 242904903 heartbeat IPC: 0.291766 cumulative IPC: 0.297139 (Simulation time: 0 hr 6 min 28 sec) 
Heartbeat CPU 0 instructions: 170000001 cycles: 274914449 heartbeat IPC: 0.312407 cumulative IPC: 0.299228 (Simulation time: 0 hr 6 min 56 sec) 
Heartbeat CPU 0 instructions: 180000002 cycles: 306786534 heartbeat IPC: 0.313754 cumulative IPC: 0.30097 (Simulation time: 0 hr 7 min 25 sec) 
Heartbeat CPU 0 instructions: 190000000 cycles: 337317421 heartbeat IPC: 0.327537 cumulative IPC: 0.303707 (Simulation time: 0 hr 7 min 52 sec) 
Heartbeat CPU 0 instructions: 200000003 cycles: 372111158 heartbeat IPC: 0.287408 cumulative IPC: 0.301994 (Simulation time: 0 hr 8 min 22 sec) 
Heartbeat CPU 0 instructions: 210000001 cycles: 415044001 heartbeat IPC: 0.232922 cumulative IPC: 0.294067 (Simulation time: 0 hr 8 min 51 sec) 
Heartbeat CPU 0 instructions: 220000000 cycles: 443564058 heartbeat IPC: 0.35063 cumulative IPC: 0.298074 (Simulation time: 0 hr 9 min 19 sec) 
Heartbeat CPU 0 instructions: 230000001 cycles: 472392117 heartbeat IPC: 0.346884 cumulative IPC: 0.301335 (Simulation time: 0 hr 9 min 48 sec) 
Heartbeat CPU 0 instructions: 240000002 cycles: 506791973 heartbeat IPC: 0.290699 cumulative IPC: 0.30055 (Simulation time: 0 hr 10 min 16 sec) 
Heartbeat CPU 0 instructions: 250000000 cycles: 538769477 heartbeat IPC: 0.31272 cumulative IPC: 0.301332 (Simulation time: 0 hr 10 min 44 sec) 
Heartbeat CPU 0 instructions: 260000003 cycles: 570714176 heartbeat IPC: 0.313041 cumulative IPC: 0.302038 (Simulation time: 0 hr 11 min 13 sec) 
Heartbeat CPU 0 instructions: 270000003 cycles: 602047355 heartbeat IPC: 0.319151 cumulative IPC: 0.302993 (Simulation time: 0 hr 11 min 41 sec) 
Heartbeat CPU 0 instructions: 280000003 cycles: 635667943 heartbeat IPC: 0.297437 cumulative IPC: 0.302679 (Simulation time: 0 hr 12 min 10 sec) 
Heartbeat CPU 0 instructions: 290000000 cycles: 665802929 heartbeat IPC: 0.33184 cumulative IPC: 0.304086 (Simulation time: 0 hr 12 min 36 sec) 
Heartbeat CPU 0 instructions: 300000002 cycles: 696071538 heartbeat IPC: 0.330375 cumulative IPC: 0.3053 (Simulation time: 0 hr 13 min 2 sec) 
Heartbeat CPU 0 instructions: 310000002 cycles: 728358524 heartbeat IPC: 0.309722 cumulative IPC: 0.305508 (Simulation time: 0 hr 13 min 30 sec) 
Heartbeat CPU 0 instructions: 320000001 cycles: 776751266 heartbeat IPC: 0.206643 cumulative IPC: 0.299006 (Simulation time: 0 hr 14 min 4 sec) 
Heartbeat CPU 0 instructions: 330000000 cycles: 804069644 heartbeat IPC: 0.366054 cumulative IPC: 0.301406 (Simulation time: 0 hr 14 min 32 sec) 
Heartbeat CPU 0 instructions: 340000000 cycles: 834353919 heartbeat IPC: 0.330204 cumulative IPC: 0.302505 (Simulation time: 0 hr 15 min 0 sec) 
Heartbeat CPU 0 instructions: 350000003 cycles: 867962920 heartbeat IPC: 0.297539 cumulative IPC: 0.302303 (Simulation time: 0 hr 15 min 28 sec) 
Heartbeat CPU 0 instructions: 360000002 cycles: 900346389 heartbeat IPC: 0.3088 cumulative IPC: 0.302548 (Simulation time: 0 hr 15 min 56 sec) 
Heartbeat CPU 0 instructions: 370000001 cycles: 932699621 heartbeat IPC: 0.309088 cumulative IPC: 0.302785 (Simulation time: 0 hr 16 min 24 sec) 
Heartbeat CPU 0 instructions: 380000002 cycles: 965028775 heartbeat IPC: 0.309318 cumulative IPC: 0.303014 (Simulation time: 0 hr 16 min 52 sec) 
Heartbeat CPU 0 instructions: 390000000 cycles: 997427469 heartbeat IPC: 0.308654 cumulative IPC: 0.303205 (Simulation time: 0 hr 17 min 21 sec) 
Heartbeat CPU 0 instructions: 400000003 cycles: 1029821053 heartbeat IPC: 0.308703 cumulative IPC: 0.303385 (Simulation time: 0 hr 17 min 49 sec) 
Heartbeat CPU 0 instructions: 410000000 cycles: 1062243926 heartbeat IPC: 0.308424 cumulative IPC: 0.303545 (Simulation time: 0 hr 18 min 17 sec) 
Heartbeat CPU 0 instructions: 420000002 cycles: 1094642717 heartbeat IPC: 0.308654 cumulative IPC: 0.303702 (Simulation time: 0 hr 18 min 45 sec) 
Heartbeat CPU 0 instructions: 430000003 cycles: 1127010218 heartbeat IPC: 0.308952 cumulative IPC: 0.303859 (Simulation time: 0 hr 19 min 13 sec) 
Heartbeat CPU 0 instructions: 440000000 cycles: 1173481588 heartbeat IPC: 0.215186 cumulative IPC: 0.30022 (Simulation time: 0 hr 19 min 45 sec) 
Heartbeat CPU 0 instructions: 450000001 cycles: 1199271048 heartbeat IPC: 0.387755 cumulative IPC: 0.302169 (Simulation time: 0 hr 20 min 14 sec) 
Heartbeat CPU 0 instructions: 460000000 cycles: 1231626324 heartbeat IPC: 0.309069 cumulative IPC: 0.302357 (Simulation time: 0 hr 20 min 42 sec) 
Heartbeat CPU 0 instructions: 470000001 cycles: 1263819569 heartbeat IPC: 0.310624 cumulative IPC: 0.302574 (Simulation time: 0 hr 21 min 10 sec) 
Heartbeat CPU 0 instructions: 480000000 cycles: 1296088977 heartbeat IPC: 0.309891 cumulative IPC: 0.302762 (Simulation time: 0 hr 21 min 38 sec) 
Heartbeat CPU 0 instructions: 490000003 cycles: 1328364060 heartbeat IPC: 0.309837 cumulative IPC: 0.30294 (Simulation time: 0 hr 22 min 6 sec) 
Heartbeat CPU 0 instructions: 500000000 cycles: 1360614881 heartbeat IPC: 0.31007 cumulative IPC: 0.303114 (Simulation time: 0 hr 22 min 34 sec) 
Heartbeat CPU 0 instructions: 510000000 cycles: 1392888196 heartbeat IPC: 0.309854 cumulative IPC: 0.303275 (Simulation time: 0 hr 23 min 2 sec) 
Heartbeat CPU 0 instructions: 520000001 cycles: 1425123012 heartbeat IPC: 0.310224 cumulative IPC: 0.303437 (Simulation time: 0 hr 23 min 30 sec) 
Heartbeat CPU 0 instructions: 530000002 cycles: 1457377773 heartbeat IPC: 0.310032 cumulative IPC: 0.303587 (Simulation time: 0 hr 23 min 58 sec) 
Heartbeat CPU 0 instructions: 540000002 cycles: 1489611988 heartbeat IPC: 0.310229 cumulative IPC: 0.303735 (Simulation time: 0 hr 24 min 26 sec) 
Heartbeat CPU 0 instructions: 550000000 cycles: 1521189362 heartbeat IPC: 0.316682 cumulative IPC: 0.304011 (Simulation time: 0 hr 24 min 54 sec) 
Heartbeat CPU 0 instructions: 560000001 cycles: 1568020699 heartbeat IPC: 0.213532 cumulative IPC: 0.301236 (Simulation time: 0 hr 25 min 26 sec) 
Heartbeat CPU 0 instructions: 570000001 cycles: 1593511939 heartbeat IPC: 0.392292 cumulative IPC: 0.302731 (Simulation time: 0 hr 25 min 55 sec) 
Heartbeat CPU 0 instructions: 580000001 cycles: 1633598715 heartbeat IPC: 0.249459 cumulative IPC: 0.30139 (Simulation time: 0 hr 26 min 28 sec) 
Heartbeat CPU 0 instructions: 590000001 cycles: 1666102058 heartbeat IPC: 0.307661 cumulative IPC: 0.301516 (Simulation time: 0 hr 26 min 55 sec) 
Heartbeat CPU 0 instructions: 600000002 cycles: 1698778700 heartbeat IPC: 0.306029 cumulative IPC: 0.301605 (Simulation time: 0 hr 27 min 25 sec) 
Heartbeat CPU 0 instructions: 610000001 cycles: 1731484517 heartbeat IPC: 0.305756 cumulative IPC: 0.301685 (Simulation time: 0 hr 27 min 53 sec) 
Heartbeat CPU 0 instructions: 620000000 cycles: 1770559555 heartbeat IPC: 0.255918 cumulative IPC: 0.300651 (Simulation time: 0 hr 28 min 26 sec) 
Heartbeat CPU 0 instructions: 630000003 cycles: 1809675178 heartbeat IPC: 0.255652 cumulative IPC: 0.299656 (Simulation time: 0 hr 28 min 58 sec) 
Heartbeat CPU 0 instructions: 640000002 cycles: 1848272513 heartbeat IPC: 0.259085 cumulative IPC: 0.298789 (Simulation time: 0 hr 29 min 30 sec) 
Heartbeat CPU 0 instructions: 650000001 cycles: 1882424231 heartbeat IPC: 0.292811 cumulative IPC: 0.298678 (Simulation time: 0 hr 29 min 59 sec) 
Heartbeat CPU 0 instructions: 660000000 cycles: 1921280063 heartbeat IPC: 0.257362 cumulative IPC: 0.297825 (Simulation time: 0 hr 30 min 32 sec) 
Heartbeat CPU 0 instructions: 670000000 cycles: 1960774492 heartbeat IPC: 0.2532 cumulative IPC: 0.296907 (Simulation time: 0 hr 31 min 4 sec) 
Heartbeat CPU 0 instructions: 680000000 cycles: 2015344689 heartbeat IPC: 0.18325 cumulative IPC: 0.293765 (Simulation time: 0 hr 31 min 45 sec) 
Heartbeat CPU 0 instructions: 690000003 cycles: 2041949817 heartbeat IPC: 0.375868 cumulative IPC: 0.294857 (Simulation time: 0 hr 32 min 13 sec) 
Heartbeat CPU 0 instructions: 700000003 cycles: 2073564465 heartbeat IPC: 0.316309 cumulative IPC: 0.295191 (Simulation time: 0 hr 32 min 42 sec) 
Heartbeat CPU 0 instructions: 710000002 cycles: 2109875326 heartbeat IPC: 0.2754 cumulative IPC: 0.294843 (Simulation time: 0 hr 33 min 14 sec) 
Heartbeat CPU 0 instructions: 720000002 cycles: 2148934019 heartbeat IPC: 0.256025 cumulative IPC: 0.294124 (Simulation time: 0 hr 33 min 47 sec) 
Heartbeat CPU 0 instructions: 730000001 cycles: 2187279109 heartbeat IPC: 0.26079 cumulative IPC: 0.293528 (Simulation time: 0 hr 34 min 19 sec) 
Heartbeat CPU 0 instructions: 740000002 cycles: 2225416709 heartbeat IPC: 0.262208 cumulative IPC: 0.292982 (Simulation time: 0 hr 34 min 51 sec) 
Heartbeat CPU 0 instructions: 750000003 cycles: 2264054340 heartbeat IPC: 0.258815 cumulative IPC: 0.292388 (Simulation time: 0 hr 35 min 24 sec) 
Heartbeat CPU 0 instructions: 760000001 cycles: 2303491562 heartbeat IPC: 0.253568 cumulative IPC: 0.291711 (Simulation time: 0 hr 35 min 57 sec) 
Heartbeat CPU 0 instructions: 770000000 cycles: 2343072826 heartbeat IPC: 0.252645 cumulative IPC: 0.291039 (Simulation time: 0 hr 36 min 30 sec) 
Heartbeat CPU 0 instructions: 780000000 cycles: 2380425723 heartbeat IPC: 0.267717 cumulative IPC: 0.290667 (Simulation time: 0 hr 37 min 2 sec) 
Heartbeat CPU 0 instructions: 790000001 cycles: 2418297117 heartbeat IPC: 0.264052 cumulative IPC: 0.290243 (Simulation time: 0 hr 37 min 34 sec) 
Heartbeat CPU 0 instructions: 800000003 cycles: 2473430731 heartbeat IPC: 0.181378 cumulative IPC: 0.287776 (Simulation time: 0 hr 38 min 13 sec) 
Heartbeat CPU 0 instructions: 810000003 cycles: 2500739929 heartbeat IPC: 0.366177 cumulative IPC: 0.288646 (Simulation time: 0 hr 38 min 42 sec) 
Heartbeat CPU 0 instructions: 820000003 cycles: 2531679151 heartbeat IPC: 0.323214 cumulative IPC: 0.289075 (Simulation time: 0 hr 39 min 10 sec) 
Heartbeat CPU 0 instructions: 830000001 cycles: 2570415459 heartbeat IPC: 0.258156 cumulative IPC: 0.288602 (Simulation time: 0 hr 39 min 43 sec) 
Heartbeat CPU 0 instructions: 840000000 cycles: 2602411131 heartbeat IPC: 0.312542 cumulative IPC: 0.288901 (Simulation time: 0 hr 40 min 12 sec) 
Heartbeat CPU 0 instructions: 850000003 cycles: 2636298813 heartbeat IPC: 0.295093 cumulative IPC: 0.288982 (Simulation time: 0 hr 40 min 42 sec) 
Heartbeat CPU 0 instructions: 860000000 cycles: 2667732070 heartbeat IPC: 0.318134 cumulative IPC: 0.289331 (Simulation time: 0 hr 41 min 9 sec) 
Heartbeat CPU 0 instructions: 870000002 cycles: 2697660594 heartbeat IPC: 0.334129 cumulative IPC: 0.289835 (Simulation time: 0 hr 41 min 35 sec) 
Heartbeat CPU 0 instructions: 880000000 cycles: 2732241992 heartbeat IPC: 0.289173 cumulative IPC: 0.289827 (Simulation time: 0 hr 42 min 4 sec) 
Heartbeat CPU 0 instructions: 890000003 cycles: 2764779755 heartbeat IPC: 0.307335 cumulative IPC: 0.290036 (Simulation time: 0 hr 42 min 33 sec) 
Heartbeat CPU 0 instructions: 900000001 cycles: 2802321685 heartbeat IPC: 0.266369 cumulative IPC: 0.289714 (Simulation time: 0 hr 43 min 2 sec) 
Heartbeat CPU 0 instructions: 910000003 cycles: 2842237678 heartbeat IPC: 0.250526 cumulative IPC: 0.289156 (Simulation time: 0 hr 43 min 34 sec) 
Heartbeat CPU 0 instructions: 920000000 cycles: 2869782445 heartbeat IPC: 0.363045 cumulative IPC: 0.289875 (Simulation time: 0 hr 44 min 5 sec) 
Heartbeat CPU 0 instructions: 930000002 cycles: 2902309520 heartbeat IPC: 0.307436 cumulative IPC: 0.290075 (Simulation time: 0 hr 44 min 33 sec) 
Heartbeat CPU 0 instructions: 940000001 cycles: 2932433986 heartbeat IPC: 0.331956 cumulative IPC: 0.290511 (Simulation time: 0 hr 44 min 59 sec) 
Heartbeat CPU 0 instructions: 950000001 cycles: 2969503394 heartbeat IPC: 0.269764 cumulative IPC: 0.290249 (Simulation time: 0 hr 45 min 31 sec) 
Heartbeat CPU 0 instructions: 960000000 cycles: 3003585762 heartbeat IPC: 0.293407 cumulative IPC: 0.290285 (Simulation time: 0 hr 45 min 59 sec) 
Heartbeat CPU 0 instructions: 970000001 cycles: 3041091806 heartbeat IPC: 0.266624 cumulative IPC: 0.289989 (Simulation time: 0 hr 46 min 31 sec) 
Heartbeat CPU 0 instructions: 980000000 cycles: 3077779218 heartbeat IPC: 0.272573 cumulative IPC: 0.289779 (Simulation time: 0 hr 47 min 3 sec) 
Heartbeat CPU 0 instructions: 990000000 cycles: 3114936158 heartbeat IPC: 0.269129 cumulative IPC: 0.289529 (Simulation time: 0 hr 47 min 34 sec) 
Heartbeat CPU 0 instructions: 1000000001 cycles: 3147534044 heartbeat IPC: 0.306768 cumulative IPC: 0.28971 (Simulation time: 0 hr 48 min 3 sec) 
Heartbeat CPU 0 instructions: 1010000001 cycles: 3191424454 heartbeat IPC: 0.22784 cumulative IPC: 0.288848 (Simulation time: 0 hr 48 min 39 sec) 
Heartbeat CPU 0 instructions: 1020000001 cycles: 3239235869 heartbeat IPC: 0.209155 cumulative IPC: 0.287657 (Simulation time: 0 hr 49 min 14 sec) 
Heartbeat CPU 0 instructions: 1030000001 cycles: 3264877970 heartbeat IPC: 0.389984 cumulative IPC: 0.288471 (Simulation time: 0 hr 49 min 43 sec) 
Heartbeat CPU 0 instructions: 1040000002 cycles: 3302318116 heartbeat IPC: 0.267093 cumulative IPC: 0.288225 (Simulation time: 0 hr 50 min 15 sec) 
Heartbeat CPU 0 instructions: 1050000000 cycles: 3339981370 heartbeat IPC: 0.265511 cumulative IPC: 0.287966 (Simulation time: 0 hr 50 min 47 sec) 
Heartbeat CPU 0 instructions: 1060000003 cycles: 3378625521 heartbeat IPC: 0.258771 cumulative IPC: 0.287628 (Simulation time: 0 hr 51 min 20 sec) 
Heartbeat CPU 0 instructions: 1070000000 cycles: 3418191960 heartbeat IPC: 0.252739 cumulative IPC: 0.287219 (Simulation time: 0 hr 51 min 53 sec) 
Heartbeat CPU 0 instructions: 1080000000 cycles: 3456731772 heartbeat IPC: 0.259472 cumulative IPC: 0.286906 (Simulation time: 0 hr 52 min 26 sec) 
Heartbeat CPU 0 instructions: 1090000000 cycles: 3493982834 heartbeat IPC: 0.268449 cumulative IPC: 0.286707 (Simulation time: 0 hr 52 min 57 sec) 
Heartbeat CPU 0 instructions: 1100000000 cycles: 3532041212 heartbeat IPC: 0.262754 cumulative IPC: 0.286446 (Simulation time: 0 hr 53 min 29 sec) 
Finished CPU 0 instructions: 1000000001 cycles: 3491062125 cumulative IPC: 0.286446 (Simulation time: 0 hr 53 min 29 sec) 

ChampSim completed all CPUs

Region of Interest Statistics

CPU 0 cumulative IPC: 0.286446 instructions: 1000000001 cycles: 3491062125
L1D TOTAL     ACCESS:  221617706  HIT:  168446468  MISS:   53171238
L1D LOAD      ACCESS:  169354204  HIT:  123783667  MISS:   45570537
L1D RFO       ACCESS:   52263502  HIT:   44662801  MISS:    7600701
L1D PREFETCH  ACCESS:          0  HIT:          0  MISS:          0
L1D WRITEBACK ACCESS:          0  HIT:          0  MISS:          0
L1D PREFETCH  REQUESTED:          0  ISSUED:          0  USEFUL:          0  USELESS:          0
L1D AVERAGE MISS LATENCY: 151.603 cycles
L1I TOTAL     ACCESS:  184236214  HIT:  184229742  MISS:       6472
L1I LOAD      ACCESS:  184236214  HIT:  184229742  MISS:       6472
L1I RFO       ACCESS:          0  HIT:          0  MISS:          0
L1I PREFETCH  ACCESS:          0  HIT:          0  MISS:          0
L1I WRITEBACK ACCESS:          0  HIT:          0  MISS:          0
L1I PREFETCH  REQUESTED:          0  ISSUED:          0  USEFUL:          0  USELESS:          0
L1I AVERAGE MISS LATENCY: 262.6 cycles
L2C TOTAL     ACCESS:   75504702  HIT:   31738619  MISS:   43766083
L2C LOAD      ACCESS:   45571533  HIT:    8487388  MISS:   37084145
L2C RFO       ACCESS:    7599965  HIT:     919620  MISS:    6680345
L2C PREFETCH  ACCESS:          0  HIT:          0  MISS:          0
L2C WRITEBACK ACCESS:   22333204  HIT:   22331611  MISS:       1593
L2C PREFETCH  REQUESTED:          0  ISSUED:          0  USEFUL:          0  USELESS:          0
L2C AVERAGE MISS LATENCY: 168.621 cycles
LLC TOTAL     ACCESS:   60499280  HIT:   31877250  MISS:   28622030
LLC LOAD      ACCESS:   37083424  HIT:   13558489  MISS:   23524935
LLC RFO       ACCESS:    6680229  HIT:    1737553  MISS:    4942676
LLC PREFETCH  ACCESS:          0  HIT:          0  MISS:          0
LLC WRITEBACK ACCESS:   16735627  HIT:   16581208  MISS:     154419
LLC PREFETCH  REQUESTED:          0  ISSUED:          0  USEFUL:          0  USELESS:          0
LLC AVERAGE MISS LATENCY: 194.99 cycles
Major fault: 0 Minor fault: 14410

DRAM Statistics
 CHANNEL 0
 RQ ROW_BUFFER_HIT:    6552724  ROW_BUFFER_MISS:   21912438
 DBUS_CONGESTED:   12128821
 WQ ROW_BUFFER_HIT:    4960833  ROW_BUFFER_MISS:    4187740  FULL:        157

 AVG_CONGESTED_CYCLE: 6

CPU 0 Branch Prediction Accuracy: 94.4773% MPKI: 9.83563 Average ROB Occupancy at Mispredict: 51.4563

Branch types
NOT_BRANCH: 821905510 82.1906%
BRANCH_DIRECT_JUMP: 1848268 0.184827%
BRANCH_INDIRECT: 279 2.79e-05%
BRANCH_CONDITIONAL: 175056792 17.5057%
BRANCH_DIRECT_CALL: 592763 0.0592763%
BRANCH_INDIRECT_CALL: 1626 0.0001626%
BRANCH_RETURN: 594393 0.0594393%
BRANCH_OTHER: 0 0%

