
*** ChampSim Multicore Out-of-Order Simulator ***

Warmup Instructions: 100000000
Simulation Instructions: 1000000000
Number of CPUs: 1
LLC sets: 2048
LLC ways: 16
Off-chip DRAM Size: 4096 MB Channels: 1 Width: 64-bit Data Rate: 3200 MT/s

CPU 0 runs /scratch/user/kevin.weston/dpc3-traces/450.champsimtrace.xz
CPU 0 Bimodal branch predictor
Initialize DRRIP state
Assign rand_sets[0]: 454  LLC: 2048
rand_sets[0]: 454
Assign rand_sets[1]: 1662  LLC: 2048
rand_sets[1]: 1662
Assign rand_sets[2]: 1921  LLC: 2048
rand_sets[2]: 1921
Assign rand_sets[3]: 1131  LLC: 2048
rand_sets[3]: 1131
Assign rand_sets[4]: 331  LLC: 2048
rand_sets[4]: 331
Assign rand_sets[5]: 1531  LLC: 2048
rand_sets[5]: 1531
Assign rand_sets[6]: 482  LLC: 2048
rand_sets[6]: 482
Assign rand_sets[7]: 1275  LLC: 2048
rand_sets[7]: 1275
Assign rand_sets[8]: 1876  LLC: 2048
rand_sets[8]: 1876
Assign rand_sets[9]: 2038  LLC: 2048
rand_sets[9]: 2038
Assign rand_sets[10]: 701  LLC: 2048
rand_sets[10]: 701
Assign rand_sets[11]: 479  LLC: 2048
rand_sets[11]: 479
Assign rand_sets[12]: 892  LLC: 2048
rand_sets[12]: 892
Assign rand_sets[13]: 1820  LLC: 2048
rand_sets[13]: 1820
Assign rand_sets[14]: 1505  LLC: 2048
rand_sets[14]: 1505
Assign rand_sets[15]: 1159  LLC: 2048
rand_sets[15]: 1159
Assign rand_sets[16]: 513  LLC: 2048
rand_sets[16]: 513
Assign rand_sets[17]: 703  LLC: 2048
rand_sets[17]: 703
Assign rand_sets[18]: 561  LLC: 2048
rand_sets[18]: 561
Assign rand_sets[19]: 990  LLC: 2048
rand_sets[19]: 990
Assign rand_sets[20]: 342  LLC: 2048
rand_sets[20]: 342
Assign rand_sets[21]: 882  LLC: 2048
rand_sets[21]: 882
Assign rand_sets[22]: 15  LLC: 2048
rand_sets[22]: 15
Assign rand_sets[23]: 71  LLC: 2048
rand_sets[23]: 71
Assign rand_sets[24]: 1127  LLC: 2048
rand_sets[24]: 1127
Assign rand_sets[25]: 1382  LLC: 2048
rand_sets[25]: 1382
Assign rand_sets[26]: 647  LLC: 2048
rand_sets[26]: 647
Assign rand_sets[27]: 857  LLC: 2048
rand_sets[27]: 857
Assign rand_sets[28]: 1450  LLC: 2048
rand_sets[28]: 1450
Assign rand_sets[29]: 1160  LLC: 2048
rand_sets[29]: 1160
Assign rand_sets[30]: 1852  LLC: 2048
rand_sets[30]: 1852
Assign rand_sets[31]: 1881  LLC: 2048
rand_sets[31]: 1881
Assign rand_sets[32]: 1770  LLC: 2048
rand_sets[32]: 1770
Assign rand_sets[33]: 1622  LLC: 2048
rand_sets[33]: 1622
Assign rand_sets[34]: 275  LLC: 2048
rand_sets[34]: 275
Assign rand_sets[35]: 635  LLC: 2048
rand_sets[35]: 635
Assign rand_sets[36]: 466  LLC: 2048
rand_sets[36]: 466
Assign rand_sets[37]: 1413  LLC: 2048
rand_sets[37]: 1413
Assign rand_sets[38]: 417  LLC: 2048
rand_sets[38]: 417
Assign rand_sets[39]: 472  LLC: 2048
rand_sets[39]: 472
Assign rand_sets[40]: 1340  LLC: 2048
rand_sets[40]: 1340
Assign rand_sets[41]: 852  LLC: 2048
rand_sets[41]: 852
Assign rand_sets[42]: 1365  LLC: 2048
rand_sets[42]: 1365
Assign rand_sets[43]: 47  LLC: 2048
rand_sets[43]: 47
Assign rand_sets[44]: 823  LLC: 2048
rand_sets[44]: 823
Assign rand_sets[45]: 686  LLC: 2048
rand_sets[45]: 686
Assign rand_sets[46]: 1637  LLC: 2048
rand_sets[46]: 1637
Assign rand_sets[47]: 1115  LLC: 2048
rand_sets[47]: 1115
Assign rand_sets[48]: 986  LLC: 2048
rand_sets[48]: 986
Assign rand_sets[49]: 258  LLC: 2048
rand_sets[49]: 258
Assign rand_sets[50]: 633  LLC: 2048
rand_sets[50]: 633
Assign rand_sets[51]: 920  LLC: 2048
rand_sets[51]: 920
Assign rand_sets[52]: 204  LLC: 2048
rand_sets[52]: 204
Assign rand_sets[53]: 227  LLC: 2048
rand_sets[53]: 227
Assign rand_sets[54]: 1818  LLC: 2048
rand_sets[54]: 1818
Assign rand_sets[55]: 886  LLC: 2048
rand_sets[55]: 886
Assign rand_sets[56]: 1422  LLC: 2048
rand_sets[56]: 1422
Assign rand_sets[57]: 607  LLC: 2048
rand_sets[57]: 607
Assign rand_sets[58]: 217  LLC: 2048
rand_sets[58]: 217
Assign rand_sets[59]: 1945  LLC: 2048
rand_sets[59]: 1945
Assign rand_sets[60]: 143  LLC: 2048
rand_sets[60]: 143
Assign rand_sets[61]: 1311  LLC: 2048
rand_sets[61]: 1311
Assign rand_sets[62]: 319  LLC: 2048
rand_sets[62]: 319
Assign rand_sets[63]: 1846  LLC: 2048
rand_sets[63]: 1846
Heartbeat CPU 0 instructions: 10000002 cycles: 4636756 heartbeat IPC: 2.15668 cumulative IPC: 2.15668 (Simulation time: 0 hr 0 min 25 sec) 
Heartbeat CPU 0 instructions: 20000001 cycles: 8710072 heartbeat IPC: 2.455 cumulative IPC: 2.29619 (Simulation time: 0 hr 0 min 47 sec) 
Heartbeat CPU 0 instructions: 30000003 cycles: 12760433 heartbeat IPC: 2.46892 cumulative IPC: 2.35102 (Simulation time: 0 hr 1 min 8 sec) 
Heartbeat CPU 0 instructions: 40000002 cycles: 16781883 heartbeat IPC: 2.48667 cumulative IPC: 2.38352 (Simulation time: 0 hr 1 min 29 sec) 
Heartbeat CPU 0 instructions: 50000000 cycles: 20806627 heartbeat IPC: 2.48463 cumulative IPC: 2.40308 (Simulation time: 0 hr 1 min 50 sec) 
Heartbeat CPU 0 instructions: 60000002 cycles: 24841465 heartbeat IPC: 2.47841 cumulative IPC: 2.41532 (Simulation time: 0 hr 2 min 12 sec) 
Heartbeat CPU 0 instructions: 70000000 cycles: 28802131 heartbeat IPC: 2.52483 cumulative IPC: 2.43038 (Simulation time: 0 hr 2 min 33 sec) 
Heartbeat CPU 0 instructions: 80000001 cycles: 32818140 heartbeat IPC: 2.49003 cumulative IPC: 2.43768 (Simulation time: 0 hr 2 min 54 sec) 
Heartbeat CPU 0 instructions: 90000001 cycles: 36875082 heartbeat IPC: 2.46491 cumulative IPC: 2.44067 (Simulation time: 0 hr 3 min 15 sec) 
Heartbeat CPU 0 instructions: 100000003 cycles: 40954167 heartbeat IPC: 2.45153 cumulative IPC: 2.44175 (Simulation time: 0 hr 3 min 37 sec) 

Warmup complete CPU 0 instructions: 100000003 cycles: 40954167 (Simulation time: 0 hr 3 min 37 sec) 

Heartbeat CPU 0 instructions: 110000000 cycles: 90079822 heartbeat IPC: 0.20356 cumulative IPC: 0.20356 (Simulation time: 0 hr 4 min 11 sec) 
Heartbeat CPU 0 instructions: 120000003 cycles: 116909334 heartbeat IPC: 0.372724 cumulative IPC: 0.263313 (Simulation time: 0 hr 4 min 41 sec) 
Heartbeat CPU 0 instructions: 130000002 cycles: 151873560 heartbeat IPC: 0.286007 cumulative IPC: 0.270467 (Simulation time: 0 hr 5 min 11 sec) 
Heartbeat CPU 0 instructions: 140000003 cycles: 181007220 heartbeat IPC: 0.343246 cumulative IPC: 0.285606 (Simulation time: 0 hr 5 min 37 sec) 
Heartbeat CPU 0 instructions: 150000003 cycles: 209776009 heartbeat IPC: 0.347599 cumulative IPC: 0.29617 (Simulation time: 0 hr 6 min 3 sec) 
Heartbeat CPU 0 instructions: 160000002 cycles: 241595166 heartbeat IPC: 0.314276 cumulative IPC: 0.299042 (Simulation time: 0 hr 6 min 30 sec) 
Heartbeat CPU 0 instructions: 170000001 cycles: 273448047 heartbeat IPC: 0.313943 cumulative IPC: 0.301083 (Simulation time: 0 hr 6 min 58 sec) 
Heartbeat CPU 0 instructions: 180000002 cycles: 304126232 heartbeat IPC: 0.325965 cumulative IPC: 0.303984 (Simulation time: 0 hr 7 min 26 sec) 
Heartbeat CPU 0 instructions: 190000002 cycles: 333805951 heartbeat IPC: 0.33693 cumulative IPC: 0.307323 (Simulation time: 0 hr 7 min 53 sec) 
Heartbeat CPU 0 instructions: 200000003 cycles: 367154907 heartbeat IPC: 0.299859 cumulative IPC: 0.30656 (Simulation time: 0 hr 8 min 22 sec) 
Heartbeat CPU 0 instructions: 210000001 cycles: 410882449 heartbeat IPC: 0.228689 cumulative IPC: 0.297355 (Simulation time: 0 hr 8 min 52 sec) 
Heartbeat CPU 0 instructions: 220000000 cycles: 440789068 heartbeat IPC: 0.334374 cumulative IPC: 0.300124 (Simulation time: 0 hr 9 min 22 sec) 
Heartbeat CPU 0 instructions: 230000001 cycles: 471519838 heartbeat IPC: 0.325407 cumulative IPC: 0.301928 (Simulation time: 0 hr 9 min 52 sec) 
Heartbeat CPU 0 instructions: 240000002 cycles: 503602871 heartbeat IPC: 0.311691 cumulative IPC: 0.302605 (Simulation time: 0 hr 10 min 19 sec) 
Heartbeat CPU 0 instructions: 250000001 cycles: 535614503 heartbeat IPC: 0.312386 cumulative IPC: 0.303238 (Simulation time: 0 hr 10 min 48 sec) 
Heartbeat CPU 0 instructions: 260000003 cycles: 566422919 heartbeat IPC: 0.324587 cumulative IPC: 0.30449 (Simulation time: 0 hr 11 min 15 sec) 
Heartbeat CPU 0 instructions: 270000003 cycles: 596688333 heartbeat IPC: 0.33041 cumulative IPC: 0.305902 (Simulation time: 0 hr 11 min 43 sec) 
Heartbeat CPU 0 instructions: 280000003 cycles: 629065781 heartbeat IPC: 0.308857 cumulative IPC: 0.306064 (Simulation time: 0 hr 12 min 11 sec) 
Heartbeat CPU 0 instructions: 290000000 cycles: 657998608 heartbeat IPC: 0.345628 cumulative IPC: 0.307919 (Simulation time: 0 hr 12 min 37 sec) 
Heartbeat CPU 0 instructions: 300000002 cycles: 687114800 heartbeat IPC: 0.343452 cumulative IPC: 0.309521 (Simulation time: 0 hr 13 min 3 sec) 
Heartbeat CPU 0 instructions: 310000002 cycles: 717702586 heartbeat IPC: 0.326928 cumulative IPC: 0.310307 (Simulation time: 0 hr 13 min 30 sec) 
Heartbeat CPU 0 instructions: 320000001 cycles: 766581877 heartbeat IPC: 0.204586 cumulative IPC: 0.303186 (Simulation time: 0 hr 14 min 5 sec) 
Heartbeat CPU 0 instructions: 330000000 cycles: 794665030 heartbeat IPC: 0.356085 cumulative IPC: 0.305157 (Simulation time: 0 hr 14 min 34 sec) 
Heartbeat CPU 0 instructions: 340000000 cycles: 825579449 heartbeat IPC: 0.323474 cumulative IPC: 0.305878 (Simulation time: 0 hr 15 min 3 sec) 
Heartbeat CPU 0 instructions: 350000003 cycles: 857039506 heartbeat IPC: 0.317863 cumulative IPC: 0.306341 (Simulation time: 0 hr 15 min 30 sec) 
Heartbeat CPU 0 instructions: 360000002 cycles: 887806950 heartbeat IPC: 0.325019 cumulative IPC: 0.307019 (Simulation time: 0 hr 15 min 57 sec) 
Heartbeat CPU 0 instructions: 370000001 cycles: 918511027 heartbeat IPC: 0.32569 cumulative IPC: 0.307672 (Simulation time: 0 hr 16 min 24 sec) 
Heartbeat CPU 0 instructions: 380000002 cycles: 949143954 heartbeat IPC: 0.326446 cumulative IPC: 0.308306 (Simulation time: 0 hr 16 min 52 sec) 
Heartbeat CPU 0 instructions: 390000000 cycles: 979843560 heartbeat IPC: 0.325737 cumulative IPC: 0.308876 (Simulation time: 0 hr 17 min 19 sec) 
Heartbeat CPU 0 instructions: 400000003 cycles: 1010524808 heartbeat IPC: 0.325932 cumulative IPC: 0.309415 (Simulation time: 0 hr 17 min 46 sec) 
Heartbeat CPU 0 instructions: 410000000 cycles: 1041230363 heartbeat IPC: 0.325674 cumulative IPC: 0.309914 (Simulation time: 0 hr 18 min 13 sec) 
Heartbeat CPU 0 instructions: 420000002 cycles: 1071880718 heartbeat IPC: 0.326261 cumulative IPC: 0.3104 (Simulation time: 0 hr 18 min 40 sec) 
Heartbeat CPU 0 instructions: 430000003 cycles: 1102538800 heartbeat IPC: 0.326178 cumulative IPC: 0.310856 (Simulation time: 0 hr 19 min 8 sec) 
Heartbeat CPU 0 instructions: 440000000 cycles: 1151920379 heartbeat IPC: 0.202505 cumulative IPC: 0.30604 (Simulation time: 0 hr 19 min 43 sec) 
Heartbeat CPU 0 instructions: 450000001 cycles: 1178792181 heartbeat IPC: 0.372137 cumulative IPC: 0.307601 (Simulation time: 0 hr 20 min 12 sec) 
Heartbeat CPU 0 instructions: 460000000 cycles: 1211496576 heartbeat IPC: 0.305769 cumulative IPC: 0.30755 (Simulation time: 0 hr 20 min 41 sec) 
Heartbeat CPU 0 instructions: 470000001 cycles: 1242023927 heartbeat IPC: 0.327575 cumulative IPC: 0.308059 (Simulation time: 0 hr 21 min 8 sec) 
Heartbeat CPU 0 instructions: 480000000 cycles: 1272685405 heartbeat IPC: 0.326142 cumulative IPC: 0.308509 (Simulation time: 0 hr 21 min 35 sec) 
Heartbeat CPU 0 instructions: 490000003 cycles: 1303322699 heartbeat IPC: 0.3264 cumulative IPC: 0.308943 (Simulation time: 0 hr 22 min 3 sec) 
Heartbeat CPU 0 instructions: 500000000 cycles: 1333985357 heartbeat IPC: 0.326129 cumulative IPC: 0.309351 (Simulation time: 0 hr 22 min 30 sec) 
Heartbeat CPU 0 instructions: 510000000 cycles: 1364599039 heartbeat IPC: 0.326651 cumulative IPC: 0.309751 (Simulation time: 0 hr 22 min 57 sec) 
Heartbeat CPU 0 instructions: 520000001 cycles: 1395180093 heartbeat IPC: 0.327 cumulative IPC: 0.31014 (Simulation time: 0 hr 23 min 24 sec) 
Heartbeat CPU 0 instructions: 530000002 cycles: 1425791899 heartbeat IPC: 0.326671 cumulative IPC: 0.310506 (Simulation time: 0 hr 23 min 52 sec) 
Heartbeat CPU 0 instructions: 540000002 cycles: 1456364612 heartbeat IPC: 0.327089 cumulative IPC: 0.310864 (Simulation time: 0 hr 24 min 19 sec) 
Heartbeat CPU 0 instructions: 550000000 cycles: 1486459669 heartbeat IPC: 0.33228 cumulative IPC: 0.31131 (Simulation time: 0 hr 24 min 46 sec) 
Heartbeat CPU 0 instructions: 560000001 cycles: 1535290118 heartbeat IPC: 0.20479 cumulative IPC: 0.307829 (Simulation time: 0 hr 25 min 20 sec) 
Heartbeat CPU 0 instructions: 570000001 cycles: 1562160326 heartbeat IPC: 0.372159 cumulative IPC: 0.308965 (Simulation time: 0 hr 25 min 50 sec) 
Heartbeat CPU 0 instructions: 580000001 cycles: 1600830898 heartbeat IPC: 0.258595 cumulative IPC: 0.307717 (Simulation time: 0 hr 26 min 22 sec) 
Heartbeat CPU 0 instructions: 590000001 cycles: 1631543127 heartbeat IPC: 0.325603 cumulative IPC: 0.308062 (Simulation time: 0 hr 26 min 51 sec) 
Heartbeat CPU 0 instructions: 600000002 cycles: 1662530048 heartbeat IPC: 0.322717 cumulative IPC: 0.308342 (Simulation time: 0 hr 27 min 19 sec) 
Heartbeat CPU 0 instructions: 610000001 cycles: 1693515323 heartbeat IPC: 0.322734 cumulative IPC: 0.308612 (Simulation time: 0 hr 27 min 46 sec) 
Heartbeat CPU 0 instructions: 620000000 cycles: 1729679798 heartbeat IPC: 0.276514 cumulative IPC: 0.307925 (Simulation time: 0 hr 28 min 18 sec) 
Heartbeat CPU 0 instructions: 630000003 cycles: 1765830721 heartbeat IPC: 0.276618 cumulative IPC: 0.307268 (Simulation time: 0 hr 28 min 49 sec) 
Heartbeat CPU 0 instructions: 640000002 cycles: 1801536408 heartbeat IPC: 0.280067 cumulative IPC: 0.306717 (Simulation time: 0 hr 29 min 20 sec) 
Heartbeat CPU 0 instructions: 650000001 cycles: 1833634720 heartbeat IPC: 0.311543 cumulative IPC: 0.306803 (Simulation time: 0 hr 29 min 48 sec) 
Heartbeat CPU 0 instructions: 660000000 cycles: 1868908245 heartbeat IPC: 0.283499 cumulative IPC: 0.306353 (Simulation time: 0 hr 30 min 19 sec) 
Heartbeat CPU 0 instructions: 670000000 cycles: 1904548840 heartbeat IPC: 0.280579 cumulative IPC: 0.30586 (Simulation time: 0 hr 30 min 49 sec) 
Heartbeat CPU 0 instructions: 680000000 cycles: 1960337895 heartbeat IPC: 0.179247 cumulative IPC: 0.30218 (Simulation time: 0 hr 31 min 31 sec) 
Heartbeat CPU 0 instructions: 690000003 cycles: 1987539567 heartbeat IPC: 0.367625 cumulative IPC: 0.303095 (Simulation time: 0 hr 32 min 0 sec) 
Heartbeat CPU 0 instructions: 700000003 cycles: 2018779500 heartbeat IPC: 0.320103 cumulative IPC: 0.303364 (Simulation time: 0 hr 32 min 29 sec) 
Heartbeat CPU 0 instructions: 710000002 cycles: 2053675686 heartbeat IPC: 0.286564 cumulative IPC: 0.303072 (Simulation time: 0 hr 33 min 0 sec) 
Heartbeat CPU 0 instructions: 720000002 cycles: 2089474409 heartbeat IPC: 0.27934 cumulative IPC: 0.302657 (Simulation time: 0 hr 33 min 32 sec) 
Heartbeat CPU 0 instructions: 730000001 cycles: 2125445052 heartbeat IPC: 0.278004 cumulative IPC: 0.302232 (Simulation time: 0 hr 34 min 3 sec) 
Heartbeat CPU 0 instructions: 740000002 cycles: 2161358632 heartbeat IPC: 0.278446 cumulative IPC: 0.301829 (Simulation time: 0 hr 34 min 34 sec) 
Heartbeat CPU 0 instructions: 750000003 cycles: 2197375658 heartbeat IPC: 0.277646 cumulative IPC: 0.301425 (Simulation time: 0 hr 35 min 6 sec) 
Heartbeat CPU 0 instructions: 760000001 cycles: 2233953470 heartbeat IPC: 0.27339 cumulative IPC: 0.300958 (Simulation time: 0 hr 35 min 37 sec) 
Heartbeat CPU 0 instructions: 770000000 cycles: 2270710759 heartbeat IPC: 0.272055 cumulative IPC: 0.300481 (Simulation time: 0 hr 36 min 10 sec) 
Heartbeat CPU 0 instructions: 780000000 cycles: 2305942677 heartbeat IPC: 0.283834 cumulative IPC: 0.300222 (Simulation time: 0 hr 36 min 40 sec) 
Heartbeat CPU 0 instructions: 790000002 cycles: 2341363612 heartbeat IPC: 0.282319 cumulative IPC: 0.299947 (Simulation time: 0 hr 37 min 11 sec) 
Heartbeat CPU 0 instructions: 800000003 cycles: 2396780885 heartbeat IPC: 0.180449 cumulative IPC: 0.297136 (Simulation time: 0 hr 37 min 52 sec) 
Heartbeat CPU 0 instructions: 810000002 cycles: 2424864715 heartbeat IPC: 0.356077 cumulative IPC: 0.29783 (Simulation time: 0 hr 38 min 21 sec) 
Heartbeat CPU 0 instructions: 820000003 cycles: 2456425197 heartbeat IPC: 0.316852 cumulative IPC: 0.298079 (Simulation time: 0 hr 38 min 50 sec) 
Heartbeat CPU 0 instructions: 830000001 cycles: 2493697712 heartbeat IPC: 0.268294 cumulative IPC: 0.297626 (Simulation time: 0 hr 39 min 23 sec) 
Heartbeat CPU 0 instructions: 840000000 cycles: 2524436956 heartbeat IPC: 0.325317 cumulative IPC: 0.297969 (Simulation time: 0 hr 39 min 51 sec) 
Heartbeat CPU 0 instructions: 850000003 cycles: 2557122908 heartbeat IPC: 0.305942 cumulative IPC: 0.298072 (Simulation time: 0 hr 40 min 20 sec) 
Heartbeat CPU 0 instructions: 860000000 cycles: 2587244321 heartbeat IPC: 0.33199 cumulative IPC: 0.298473 (Simulation time: 0 hr 40 min 47 sec) 
Heartbeat CPU 0 instructions: 870000003 cycles: 2615992320 heartbeat IPC: 0.34785 cumulative IPC: 0.299025 (Simulation time: 0 hr 41 min 13 sec) 
Heartbeat CPU 0 instructions: 880000000 cycles: 2648062617 heartbeat IPC: 0.311815 cumulative IPC: 0.299182 (Simulation time: 0 hr 41 min 41 sec) 
Heartbeat CPU 0 instructions: 890000003 cycles: 2680467516 heartbeat IPC: 0.308595 cumulative IPC: 0.299298 (Simulation time: 0 hr 42 min 10 sec) 
Heartbeat CPU 0 instructions: 900000001 cycles: 2717517122 heartbeat IPC: 0.269908 cumulative IPC: 0.298891 (Simulation time: 0 hr 42 min 38 sec) 
Heartbeat CPU 0 instructions: 910000003 cycles: 2758723406 heartbeat IPC: 0.242681 cumulative IPC: 0.298039 (Simulation time: 0 hr 43 min 12 sec) 
Heartbeat CPU 0 instructions: 920000000 cycles: 2787343749 heartbeat IPC: 0.349402 cumulative IPC: 0.298574 (Simulation time: 0 hr 43 min 44 sec) 
Heartbeat CPU 0 instructions: 930000002 cycles: 2820229307 heartbeat IPC: 0.304085 cumulative IPC: 0.298639 (Simulation time: 0 hr 44 min 12 sec) 
Heartbeat CPU 0 instructions: 940000001 cycles: 2849221896 heartbeat IPC: 0.344916 cumulative IPC: 0.299117 (Simulation time: 0 hr 44 min 38 sec) 
Heartbeat CPU 0 instructions: 950000001 cycles: 2884210663 heartbeat IPC: 0.285806 cumulative IPC: 0.298953 (Simulation time: 0 hr 45 min 9 sec) 
Heartbeat CPU 0 instructions: 960000000 cycles: 2916022635 heartbeat IPC: 0.314347 cumulative IPC: 0.299123 (Simulation time: 0 hr 45 min 36 sec) 
Heartbeat CPU 0 instructions: 970000001 cycles: 2951591345 heartbeat IPC: 0.281146 cumulative IPC: 0.298904 (Simulation time: 0 hr 46 min 8 sec) 
Heartbeat CPU 0 instructions: 980000000 cycles: 2986362529 heartbeat IPC: 0.287594 cumulative IPC: 0.29877 (Simulation time: 0 hr 46 min 39 sec) 
Heartbeat CPU 0 instructions: 990000000 cycles: 3021504910 heartbeat IPC: 0.284557 cumulative IPC: 0.298603 (Simulation time: 0 hr 47 min 10 sec) 
Heartbeat CPU 0 instructions: 1000000001 cycles: 3054111784 heartbeat IPC: 0.306684 cumulative IPC: 0.29869 (Simulation time: 0 hr 47 min 39 sec) 
Heartbeat CPU 0 instructions: 1010000001 cycles: 3095072375 heartbeat IPC: 0.244137 cumulative IPC: 0.297958 (Simulation time: 0 hr 48 min 13 sec) 
Heartbeat CPU 0 instructions: 1020000001 cycles: 3144298814 heartbeat IPC: 0.203143 cumulative IPC: 0.296454 (Simulation time: 0 hr 48 min 50 sec) 
Heartbeat CPU 0 instructions: 1030000001 cycles: 3171274097 heartbeat IPC: 0.37071 cumulative IPC: 0.297094 (Simulation time: 0 hr 49 min 20 sec) 
Heartbeat CPU 0 instructions: 1040000002 cycles: 3207827553 heartbeat IPC: 0.273572 cumulative IPC: 0.296823 (Simulation time: 0 hr 49 min 51 sec) 
Heartbeat CPU 0 instructions: 1050000000 cycles: 3243590697 heartbeat IPC: 0.279617 cumulative IPC: 0.296631 (Simulation time: 0 hr 50 min 23 sec) 
Heartbeat CPU 0 instructions: 1060000003 cycles: 3279917812 heartbeat IPC: 0.275277 cumulative IPC: 0.296391 (Simulation time: 0 hr 50 min 55 sec) 
Heartbeat CPU 0 instructions: 1070000002 cycles: 3317031354 heartbeat IPC: 0.269443 cumulative IPC: 0.296086 (Simulation time: 0 hr 51 min 27 sec) 
Heartbeat CPU 0 instructions: 1080000000 cycles: 3353146431 heartbeat IPC: 0.276893 cumulative IPC: 0.295877 (Simulation time: 0 hr 51 min 58 sec) 
Heartbeat CPU 0 instructions: 1090000000 cycles: 3388007699 heartbeat IPC: 0.286851 cumulative IPC: 0.295783 (Simulation time: 0 hr 52 min 28 sec) 
Heartbeat CPU 0 instructions: 1100000000 cycles: 3423910419 heartbeat IPC: 0.27853 cumulative IPC: 0.295599 (Simulation time: 0 hr 52 min 59 sec) 
Finished CPU 0 instructions: 1000000001 cycles: 3382956260 cumulative IPC: 0.295599 (Simulation time: 0 hr 52 min 59 sec) 

ChampSim completed all CPUs

Region of Interest Statistics

CPU 0 cumulative IPC: 0.295599 instructions: 1000000001 cycles: 3382956260
L1D TOTAL     ACCESS:  220796503  HIT:  167626180  MISS:   53170323
L1D LOAD      ACCESS:  168323390  HIT:  122753706  MISS:   45569684
L1D RFO       ACCESS:   52473113  HIT:   44872474  MISS:    7600639
L1D PREFETCH  ACCESS:          0  HIT:          0  MISS:          0
L1D WRITEBACK ACCESS:          0  HIT:          0  MISS:          0
L1D PREFETCH  REQUESTED:          0  ISSUED:          0  USEFUL:          0  USELESS:          0
L1D AVERAGE MISS LATENCY: 141.486 cycles
L1I TOTAL     ACCESS:  184398277  HIT:  184391805  MISS:       6472
L1I LOAD      ACCESS:  184398277  HIT:  184391805  MISS:       6472
L1I RFO       ACCESS:          0  HIT:          0  MISS:          0
L1I PREFETCH  ACCESS:          0  HIT:          0  MISS:          0
L1I WRITEBACK ACCESS:          0  HIT:          0  MISS:          0
L1I PREFETCH  REQUESTED:          0  ISSUED:          0  USEFUL:          0  USELESS:          0
L1I AVERAGE MISS LATENCY: 262.839 cycles
L2C TOTAL     ACCESS:   75504069  HIT:   31657299  MISS:   43846770
L2C LOAD      ACCESS:   45570994  HIT:    8406986  MISS:   37164008
L2C RFO       ACCESS:    7599907  HIT:     918835  MISS:    6681072
L2C PREFETCH  ACCESS:          0  HIT:          0  MISS:          0
L2C WRITEBACK ACCESS:   22333168  HIT:   22331478  MISS:       1690
L2C PREFETCH  REQUESTED:          0  ISSUED:          0  USEFUL:          0  USELESS:          0
L2C AVERAGE MISS LATENCY: 156.042 cycles
LLC TOTAL     ACCESS:   60596012  HIT:   27355770  MISS:   33240242
LLC LOAD      ACCESS:   37163258  HIT:   14053483  MISS:   23109775
LLC RFO       ACCESS:    6681005  HIT:    2320054  MISS:    4360951
LLC PREFETCH  ACCESS:          0  HIT:          0  MISS:          0
LLC WRITEBACK ACCESS:   16751749  HIT:   10982233  MISS:    5769516
LLC PREFETCH  REQUESTED:          0  ISSUED:          0  USEFUL:          0  USELESS:          0
LLC AVERAGE MISS LATENCY: 151.556 cycles
Major fault: 0 Minor fault: 14410

DRAM Statistics
 CHANNEL 0
 RQ ROW_BUFFER_HIT:    8967028  ROW_BUFFER_MISS:   18501548
 DBUS_CONGESTED:   10771633
 WQ ROW_BUFFER_HIT:    4023756  ROW_BUFFER_MISS:    4035460  FULL:     364175

 AVG_CONGESTED_CYCLE: 6

CPU 0 Branch Prediction Accuracy: 94.4773% MPKI: 9.83563 Average ROB Occupancy at Mispredict: 51.42

Branch types
NOT_BRANCH: 821905510 82.1906%
BRANCH_DIRECT_JUMP: 1848268 0.184827%
BRANCH_INDIRECT: 279 2.79e-05%
BRANCH_CONDITIONAL: 175056792 17.5057%
BRANCH_DIRECT_CALL: 592763 0.0592763%
BRANCH_INDIRECT_CALL: 1626 0.0001626%
BRANCH_RETURN: 594393 0.0594393%
BRANCH_OTHER: 0 0%

