
*** ChampSim Multicore Out-of-Order Simulator ***

Warmup Instructions: 100000000
Simulation Instructions: 1000000000
Number of CPUs: 1
LLC sets: 2048
LLC ways: 16
Off-chip DRAM Size: 4096 MB Channels: 1 Width: 64-bit Data Rate: 3200 MT/s

CPU 0 runs /scratch/user/kevin.weston/dpc3-traces/450.champsimtrace.xz
CPU 0 Bimodal branch predictor
Initialize SHIP state
Assign rand_sets[0]: 454  LLC: 2048
rand_sets[0]: 454
Assign rand_sets[1]: 1662  LLC: 2048
rand_sets[1]: 1662
Assign rand_sets[2]: 1921  LLC: 2048
rand_sets[2]: 1921
Assign rand_sets[3]: 1131  LLC: 2048
rand_sets[3]: 1131
Assign rand_sets[4]: 331  LLC: 2048
rand_sets[4]: 331
Assign rand_sets[5]: 1531  LLC: 2048
rand_sets[5]: 1531
Assign rand_sets[6]: 482  LLC: 2048
rand_sets[6]: 482
Assign rand_sets[7]: 1275  LLC: 2048
rand_sets[7]: 1275
Assign rand_sets[8]: 1876  LLC: 2048
rand_sets[8]: 1876
Assign rand_sets[9]: 2038  LLC: 2048
rand_sets[9]: 2038
Assign rand_sets[10]: 701  LLC: 2048
rand_sets[10]: 701
Assign rand_sets[11]: 479  LLC: 2048
rand_sets[11]: 479
Assign rand_sets[12]: 892  LLC: 2048
rand_sets[12]: 892
Assign rand_sets[13]: 1820  LLC: 2048
rand_sets[13]: 1820
Assign rand_sets[14]: 1505  LLC: 2048
rand_sets[14]: 1505
Assign rand_sets[15]: 1159  LLC: 2048
rand_sets[15]: 1159
Assign rand_sets[16]: 513  LLC: 2048
rand_sets[16]: 513
Assign rand_sets[17]: 703  LLC: 2048
rand_sets[17]: 703
Assign rand_sets[18]: 561  LLC: 2048
rand_sets[18]: 561
Assign rand_sets[19]: 990  LLC: 2048
rand_sets[19]: 990
Assign rand_sets[20]: 342  LLC: 2048
rand_sets[20]: 342
Assign rand_sets[21]: 882  LLC: 2048
rand_sets[21]: 882
Assign rand_sets[22]: 15  LLC: 2048
rand_sets[22]: 15
Assign rand_sets[23]: 71  LLC: 2048
rand_sets[23]: 71
Assign rand_sets[24]: 1127  LLC: 2048
rand_sets[24]: 1127
Assign rand_sets[25]: 1382  LLC: 2048
rand_sets[25]: 1382
Assign rand_sets[26]: 647  LLC: 2048
rand_sets[26]: 647
Assign rand_sets[27]: 857  LLC: 2048
rand_sets[27]: 857
Assign rand_sets[28]: 1450  LLC: 2048
rand_sets[28]: 1450
Assign rand_sets[29]: 1160  LLC: 2048
rand_sets[29]: 1160
Assign rand_sets[30]: 1852  LLC: 2048
rand_sets[30]: 1852
Assign rand_sets[31]: 1881  LLC: 2048
rand_sets[31]: 1881
Assign rand_sets[32]: 1770  LLC: 2048
rand_sets[32]: 1770
Assign rand_sets[33]: 1622  LLC: 2048
rand_sets[33]: 1622
Assign rand_sets[34]: 275  LLC: 2048
rand_sets[34]: 275
Assign rand_sets[35]: 635  LLC: 2048
rand_sets[35]: 635
Assign rand_sets[36]: 466  LLC: 2048
rand_sets[36]: 466
Assign rand_sets[37]: 1413  LLC: 2048
rand_sets[37]: 1413
Assign rand_sets[38]: 417  LLC: 2048
rand_sets[38]: 417
Assign rand_sets[39]: 472  LLC: 2048
rand_sets[39]: 472
Assign rand_sets[40]: 1340  LLC: 2048
rand_sets[40]: 1340
Assign rand_sets[41]: 852  LLC: 2048
rand_sets[41]: 852
Assign rand_sets[42]: 1365  LLC: 2048
rand_sets[42]: 1365
Assign rand_sets[43]: 47  LLC: 2048
rand_sets[43]: 47
Assign rand_sets[44]: 823  LLC: 2048
rand_sets[44]: 823
Assign rand_sets[45]: 686  LLC: 2048
rand_sets[45]: 686
Assign rand_sets[46]: 1637  LLC: 2048
rand_sets[46]: 1637
Assign rand_sets[47]: 1115  LLC: 2048
rand_sets[47]: 1115
Assign rand_sets[48]: 986  LLC: 2048
rand_sets[48]: 986
Assign rand_sets[49]: 258  LLC: 2048
rand_sets[49]: 258
Assign rand_sets[50]: 633  LLC: 2048
rand_sets[50]: 633
Assign rand_sets[51]: 920  LLC: 2048
rand_sets[51]: 920
Assign rand_sets[52]: 204  LLC: 2048
rand_sets[52]: 204
Assign rand_sets[53]: 227  LLC: 2048
rand_sets[53]: 227
Assign rand_sets[54]: 1818  LLC: 2048
rand_sets[54]: 1818
Assign rand_sets[55]: 886  LLC: 2048
rand_sets[55]: 886
Assign rand_sets[56]: 1422  LLC: 2048
rand_sets[56]: 1422
Assign rand_sets[57]: 607  LLC: 2048
rand_sets[57]: 607
Assign rand_sets[58]: 217  LLC: 2048
rand_sets[58]: 217
Assign rand_sets[59]: 1945  LLC: 2048
rand_sets[59]: 1945
Assign rand_sets[60]: 143  LLC: 2048
rand_sets[60]: 143
Assign rand_sets[61]: 1311  LLC: 2048
rand_sets[61]: 1311
Assign rand_sets[62]: 319  LLC: 2048
rand_sets[62]: 319
Assign rand_sets[63]: 1846  LLC: 2048
rand_sets[63]: 1846
Assign rand_sets[64]: 238  LLC: 2048
rand_sets[64]: 238
Assign rand_sets[65]: 67  LLC: 2048
rand_sets[65]: 67
Assign rand_sets[66]: 1912  LLC: 2048
rand_sets[66]: 1912
Assign rand_sets[67]: 1613  LLC: 2048
rand_sets[67]: 1613
Assign rand_sets[68]: 1293  LLC: 2048
rand_sets[68]: 1293
Assign rand_sets[69]: 1018  LLC: 2048
rand_sets[69]: 1018
Assign rand_sets[70]: 1982  LLC: 2048
rand_sets[70]: 1982
Assign rand_sets[71]: 1702  LLC: 2048
rand_sets[71]: 1702
Assign rand_sets[72]: 1498  LLC: 2048
rand_sets[72]: 1498
Assign rand_sets[73]: 228  LLC: 2048
rand_sets[73]: 228
Assign rand_sets[74]: 1414  LLC: 2048
rand_sets[74]: 1414
Assign rand_sets[75]: 1166  LLC: 2048
rand_sets[75]: 1166
Assign rand_sets[76]: 732  LLC: 2048
rand_sets[76]: 732
Assign rand_sets[77]: 297  LLC: 2048
rand_sets[77]: 297
Assign rand_sets[78]: 1133  LLC: 2048
rand_sets[78]: 1133
Assign rand_sets[79]: 846  LLC: 2048
rand_sets[79]: 846
Assign rand_sets[80]: 767  LLC: 2048
rand_sets[80]: 767
Assign rand_sets[81]: 1878  LLC: 2048
rand_sets[81]: 1878
Assign rand_sets[82]: 993  LLC: 2048
rand_sets[82]: 993
Assign rand_sets[83]: 1392  LLC: 2048
rand_sets[83]: 1392
Assign rand_sets[84]: 1568  LLC: 2048
rand_sets[84]: 1568
Assign rand_sets[85]: 1787  LLC: 2048
rand_sets[85]: 1787
Assign rand_sets[86]: 399  LLC: 2048
rand_sets[86]: 399
Assign rand_sets[87]: 1201  LLC: 2048
rand_sets[87]: 1201
Assign rand_sets[88]: 856  LLC: 2048
rand_sets[88]: 856
Assign rand_sets[89]: 773  LLC: 2048
rand_sets[89]: 773
Assign rand_sets[90]: 1680  LLC: 2048
rand_sets[90]: 1680
Assign rand_sets[91]: 1477  LLC: 2048
rand_sets[91]: 1477
Assign rand_sets[92]: 9  LLC: 2048
rand_sets[92]: 9
Assign rand_sets[93]: 1500  LLC: 2048
rand_sets[93]: 1500
Assign rand_sets[94]: 851  LLC: 2048
rand_sets[94]: 851
Assign rand_sets[95]: 973  LLC: 2048
rand_sets[95]: 973
Assign rand_sets[96]: 938  LLC: 2048
rand_sets[96]: 938
Assign rand_sets[97]: 1851  LLC: 2048
rand_sets[97]: 1851
Assign rand_sets[98]: 1608  LLC: 2048
rand_sets[98]: 1608
Assign rand_sets[99]: 1945  LLC: 2048
Assign rand_sets[99]: 1106  LLC: 2048
rand_sets[99]: 1106
Assign rand_sets[100]: 979  LLC: 2048
rand_sets[100]: 979
Assign rand_sets[101]: 338  LLC: 2048
rand_sets[101]: 338
Assign rand_sets[102]: 1693  LLC: 2048
rand_sets[102]: 1693
Assign rand_sets[103]: 6  LLC: 2048
rand_sets[103]: 6
Assign rand_sets[104]: 671  LLC: 2048
rand_sets[104]: 671
Assign rand_sets[105]: 490  LLC: 2048
rand_sets[105]: 490
Assign rand_sets[106]: 1461  LLC: 2048
rand_sets[106]: 1461
Assign rand_sets[107]: 1730  LLC: 2048
rand_sets[107]: 1730
Assign rand_sets[108]: 1030  LLC: 2048
rand_sets[108]: 1030
Assign rand_sets[109]: 19  LLC: 2048
rand_sets[109]: 19
Assign rand_sets[110]: 920  LLC: 2048
Assign rand_sets[110]: 329  LLC: 2048
rand_sets[110]: 329
Assign rand_sets[111]: 1714  LLC: 2048
rand_sets[111]: 1714
Assign rand_sets[112]: 1  LLC: 2048
rand_sets[112]: 1
Assign rand_sets[113]: 1822  LLC: 2048
rand_sets[113]: 1822
Assign rand_sets[114]: 172  LLC: 2048
rand_sets[114]: 172
Assign rand_sets[115]: 1586  LLC: 2048
rand_sets[115]: 1586
Assign rand_sets[116]: 648  LLC: 2048
rand_sets[116]: 648
Assign rand_sets[117]: 1329  LLC: 2048
rand_sets[117]: 1329
Assign rand_sets[118]: 668  LLC: 2048
rand_sets[118]: 668
Assign rand_sets[119]: 1874  LLC: 2048
rand_sets[119]: 1874
Assign rand_sets[120]: 70  LLC: 2048
rand_sets[120]: 70
Assign rand_sets[121]: 661  LLC: 2048
rand_sets[121]: 661
Assign rand_sets[122]: 1649  LLC: 2048
rand_sets[122]: 1649
Assign rand_sets[123]: 1590  LLC: 2048
rand_sets[123]: 1590
Assign rand_sets[124]: 911  LLC: 2048
rand_sets[124]: 911
Assign rand_sets[125]: 1367  LLC: 2048
rand_sets[125]: 1367
Assign rand_sets[126]: 1782  LLC: 2048
rand_sets[126]: 1782
Assign rand_sets[127]: 569  LLC: 2048
rand_sets[127]: 569
Heartbeat CPU 0 instructions: 10000002 cycles: 4636114 heartbeat IPC: 2.15698 cumulative IPC: 2.15698 (Simulation time: 0 hr 0 min 24 sec) 
Heartbeat CPU 0 instructions: 20000001 cycles: 8707702 heartbeat IPC: 2.45604 cumulative IPC: 2.29682 (Simulation time: 0 hr 0 min 45 sec) 
Heartbeat CPU 0 instructions: 30000000 cycles: 12761419 heartbeat IPC: 2.46687 cumulative IPC: 2.35084 (Simulation time: 0 hr 1 min 6 sec) 
Heartbeat CPU 0 instructions: 40000002 cycles: 16786054 heartbeat IPC: 2.4847 cumulative IPC: 2.38293 (Simulation time: 0 hr 1 min 27 sec) 
Heartbeat CPU 0 instructions: 50000000 cycles: 20813584 heartbeat IPC: 2.48291 cumulative IPC: 2.40228 (Simulation time: 0 hr 1 min 47 sec) 
Heartbeat CPU 0 instructions: 60000002 cycles: 24850950 heartbeat IPC: 2.47686 cumulative IPC: 2.41439 (Simulation time: 0 hr 2 min 8 sec) 
Heartbeat CPU 0 instructions: 70000000 cycles: 28814255 heartbeat IPC: 2.52315 cumulative IPC: 2.42935 (Simulation time: 0 hr 2 min 28 sec) 
Heartbeat CPU 0 instructions: 80000001 cycles: 32833254 heartbeat IPC: 2.48818 cumulative IPC: 2.43655 (Simulation time: 0 hr 2 min 49 sec) 
Heartbeat CPU 0 instructions: 90000000 cycles: 36892486 heartbeat IPC: 2.46352 cumulative IPC: 2.43952 (Simulation time: 0 hr 3 min 10 sec) 
Heartbeat CPU 0 instructions: 100000003 cycles: 40974400 heartbeat IPC: 2.44983 cumulative IPC: 2.44055 (Simulation time: 0 hr 3 min 31 sec) 

Warmup complete CPU 0 instructions: 100000003 cycles: 40974400 (Simulation time: 0 hr 3 min 31 sec) 

Heartbeat CPU 0 instructions: 110000000 cycles: 87742811 heartbeat IPC: 0.213819 cumulative IPC: 0.213819 (Simulation time: 0 hr 4 min 4 sec) 
Heartbeat CPU 0 instructions: 120000003 cycles: 113337446 heartbeat IPC: 0.390707 cumulative IPC: 0.276384 (Simulation time: 0 hr 4 min 34 sec) 
Heartbeat CPU 0 instructions: 130000003 cycles: 147673657 heartbeat IPC: 0.291238 cumulative IPC: 0.281164 (Simulation time: 0 hr 5 min 6 sec) 
Heartbeat CPU 0 instructions: 140000003 cycles: 177036898 heartbeat IPC: 0.340562 cumulative IPC: 0.293983 (Simulation time: 0 hr 5 min 33 sec) 
Heartbeat CPU 0 instructions: 150000003 cycles: 205948799 heartbeat IPC: 0.345878 cumulative IPC: 0.303077 (Simulation time: 0 hr 6 min 0 sec) 
Heartbeat CPU 0 instructions: 160000002 cycles: 238019171 heartbeat IPC: 0.311814 cumulative IPC: 0.304499 (Simulation time: 0 hr 6 min 28 sec) 
Heartbeat CPU 0 instructions: 170000001 cycles: 269415807 heartbeat IPC: 0.318505 cumulative IPC: 0.306424 (Simulation time: 0 hr 6 min 58 sec) 
Heartbeat CPU 0 instructions: 180000002 cycles: 300250712 heartbeat IPC: 0.324308 cumulative IPC: 0.308551 (Simulation time: 0 hr 7 min 27 sec) 
Heartbeat CPU 0 instructions: 190000002 cycles: 329798313 heartbeat IPC: 0.338437 cumulative IPC: 0.311609 (Simulation time: 0 hr 7 min 56 sec) 
Heartbeat CPU 0 instructions: 200000003 cycles: 363712231 heartbeat IPC: 0.294864 cumulative IPC: 0.309849 (Simulation time: 0 hr 8 min 27 sec) 
Heartbeat CPU 0 instructions: 210000001 cycles: 405754216 heartbeat IPC: 0.237857 cumulative IPC: 0.301552 (Simulation time: 0 hr 8 min 57 sec) 
Heartbeat CPU 0 instructions: 220000000 cycles: 433758250 heartbeat IPC: 0.357091 cumulative IPC: 0.305512 (Simulation time: 0 hr 9 min 26 sec) 
Heartbeat CPU 0 instructions: 230000001 cycles: 463035567 heartbeat IPC: 0.341561 cumulative IPC: 0.308012 (Simulation time: 0 hr 9 min 56 sec) 
Heartbeat CPU 0 instructions: 240000002 cycles: 495521289 heartbeat IPC: 0.307828 cumulative IPC: 0.307999 (Simulation time: 0 hr 10 min 25 sec) 
Heartbeat CPU 0 instructions: 250000000 cycles: 526867284 heartbeat IPC: 0.31902 cumulative IPC: 0.30871 (Simulation time: 0 hr 10 min 54 sec) 
Heartbeat CPU 0 instructions: 260000003 cycles: 557892467 heartbeat IPC: 0.322319 cumulative IPC: 0.309527 (Simulation time: 0 hr 11 min 24 sec) 
Heartbeat CPU 0 instructions: 270000003 cycles: 588197227 heartbeat IPC: 0.329981 cumulative IPC: 0.31066 (Simulation time: 0 hr 11 min 52 sec) 
Heartbeat CPU 0 instructions: 280000003 cycles: 620984795 heartbeat IPC: 0.304994 cumulative IPC: 0.310339 (Simulation time: 0 hr 12 min 23 sec) 
Heartbeat CPU 0 instructions: 290000000 cycles: 650089710 heartbeat IPC: 0.343584 cumulative IPC: 0.311928 (Simulation time: 0 hr 12 min 49 sec) 
Heartbeat CPU 0 instructions: 300000000 cycles: 679494321 heartbeat IPC: 0.340083 cumulative IPC: 0.313224 (Simulation time: 0 hr 13 min 17 sec) 
Heartbeat CPU 0 instructions: 310000002 cycles: 711019118 heartbeat IPC: 0.317211 cumulative IPC: 0.313412 (Simulation time: 0 hr 13 min 46 sec) 
Heartbeat CPU 0 instructions: 320000001 cycles: 758236402 heartbeat IPC: 0.211787 cumulative IPC: 0.306722 (Simulation time: 0 hr 14 min 21 sec) 
Heartbeat CPU 0 instructions: 330000000 cycles: 785137153 heartbeat IPC: 0.371737 cumulative IPC: 0.309072 (Simulation time: 0 hr 14 min 49 sec) 
Heartbeat CPU 0 instructions: 340000000 cycles: 814709991 heartbeat IPC: 0.338148 cumulative IPC: 0.310183 (Simulation time: 0 hr 15 min 18 sec) 
Heartbeat CPU 0 instructions: 350000003 cycles: 846558898 heartbeat IPC: 0.313983 cumulative IPC: 0.310334 (Simulation time: 0 hr 15 min 47 sec) 
Heartbeat CPU 0 instructions: 360000002 cycles: 877672702 heartbeat IPC: 0.321401 cumulative IPC: 0.310745 (Simulation time: 0 hr 16 min 16 sec) 
Heartbeat CPU 0 instructions: 370000001 cycles: 908733605 heartbeat IPC: 0.321948 cumulative IPC: 0.311146 (Simulation time: 0 hr 16 min 45 sec) 
Heartbeat CPU 0 instructions: 380000002 cycles: 939696495 heartbeat IPC: 0.322967 cumulative IPC: 0.311553 (Simulation time: 0 hr 17 min 14 sec) 
Heartbeat CPU 0 instructions: 390000000 cycles: 970728111 heartbeat IPC: 0.322252 cumulative IPC: 0.311911 (Simulation time: 0 hr 17 min 42 sec) 
Heartbeat CPU 0 instructions: 400000003 cycles: 1001770292 heartbeat IPC: 0.322142 cumulative IPC: 0.312241 (Simulation time: 0 hr 18 min 11 sec) 
Heartbeat CPU 0 instructions: 410000000 cycles: 1032818911 heartbeat IPC: 0.322075 cumulative IPC: 0.312549 (Simulation time: 0 hr 18 min 39 sec) 
Heartbeat CPU 0 instructions: 420000000 cycles: 1063847530 heartbeat IPC: 0.322283 cumulative IPC: 0.312844 (Simulation time: 0 hr 19 min 8 sec) 
Heartbeat CPU 0 instructions: 430000003 cycles: 1094842373 heartbeat IPC: 0.322634 cumulative IPC: 0.313132 (Simulation time: 0 hr 19 min 37 sec) 
Heartbeat CPU 0 instructions: 440000000 cycles: 1141789033 heartbeat IPC: 0.213008 cumulative IPC: 0.308862 (Simulation time: 0 hr 20 min 12 sec) 
Heartbeat CPU 0 instructions: 450000001 cycles: 1167341122 heartbeat IPC: 0.391357 cumulative IPC: 0.310734 (Simulation time: 0 hr 20 min 41 sec) 
Heartbeat CPU 0 instructions: 460000000 cycles: 1198694138 heartbeat IPC: 0.318949 cumulative IPC: 0.310956 (Simulation time: 0 hr 21 min 11 sec) 
Heartbeat CPU 0 instructions: 470000001 cycles: 1229364417 heartbeat IPC: 0.326049 cumulative IPC: 0.311346 (Simulation time: 0 hr 21 min 40 sec) 
Heartbeat CPU 0 instructions: 480000000 cycles: 1260027657 heartbeat IPC: 0.326123 cumulative IPC: 0.311717 (Simulation time: 0 hr 22 min 8 sec) 
Heartbeat CPU 0 instructions: 490000003 cycles: 1290629671 heartbeat IPC: 0.326776 cumulative IPC: 0.312086 (Simulation time: 0 hr 22 min 37 sec) 
Heartbeat CPU 0 instructions: 500000000 cycles: 1321237912 heartbeat IPC: 0.326709 cumulative IPC: 0.312436 (Simulation time: 0 hr 23 min 5 sec) 
Heartbeat CPU 0 instructions: 510000000 cycles: 1351841758 heartbeat IPC: 0.326756 cumulative IPC: 0.31277 (Simulation time: 0 hr 23 min 34 sec) 
Heartbeat CPU 0 instructions: 520000001 cycles: 1382408542 heartbeat IPC: 0.327153 cumulative IPC: 0.313098 (Simulation time: 0 hr 24 min 3 sec) 
Heartbeat CPU 0 instructions: 530000002 cycles: 1412980751 heartbeat IPC: 0.327094 cumulative IPC: 0.31341 (Simulation time: 0 hr 24 min 31 sec) 
Heartbeat CPU 0 instructions: 540000002 cycles: 1443516871 heartbeat IPC: 0.327481 cumulative IPC: 0.313716 (Simulation time: 0 hr 25 min 0 sec) 
Heartbeat CPU 0 instructions: 550000000 cycles: 1473790674 heartbeat IPC: 0.330319 cumulative IPC: 0.314067 (Simulation time: 0 hr 25 min 28 sec) 
Heartbeat CPU 0 instructions: 560000001 cycles: 1520520968 heartbeat IPC: 0.213994 cumulative IPC: 0.310906 (Simulation time: 0 hr 26 min 2 sec) 
Heartbeat CPU 0 instructions: 570000001 cycles: 1546225809 heartbeat IPC: 0.389032 cumulative IPC: 0.31224 (Simulation time: 0 hr 26 min 32 sec) 
Heartbeat CPU 0 instructions: 580000001 cycles: 1584169801 heartbeat IPC: 0.263546 cumulative IPC: 0.311043 (Simulation time: 0 hr 27 min 5 sec) 
Heartbeat CPU 0 instructions: 590000001 cycles: 1614855045 heartbeat IPC: 0.32589 cumulative IPC: 0.311332 (Simulation time: 0 hr 27 min 34 sec) 
Heartbeat CPU 0 instructions: 600000002 cycles: 1646162982 heartbeat IPC: 0.319408 cumulative IPC: 0.31149 (Simulation time: 0 hr 28 min 3 sec) 
Heartbeat CPU 0 instructions: 610000001 cycles: 1677473239 heartbeat IPC: 0.319384 cumulative IPC: 0.311641 (Simulation time: 0 hr 28 min 32 sec) 
Heartbeat CPU 0 instructions: 620000000 cycles: 1714547387 heartbeat IPC: 0.26973 cumulative IPC: 0.310712 (Simulation time: 0 hr 29 min 5 sec) 
Heartbeat CPU 0 instructions: 630000003 cycles: 1751282731 heartbeat IPC: 0.272217 cumulative IPC: 0.309886 (Simulation time: 0 hr 29 min 38 sec) 
Heartbeat CPU 0 instructions: 640000002 cycles: 1787400618 heartbeat IPC: 0.276871 cumulative IPC: 0.309203 (Simulation time: 0 hr 30 min 10 sec) 
Heartbeat CPU 0 instructions: 650000001 cycles: 1819257279 heartbeat IPC: 0.313906 cumulative IPC: 0.309287 (Simulation time: 0 hr 30 min 39 sec) 
Heartbeat CPU 0 instructions: 660000000 cycles: 1855451665 heartbeat IPC: 0.276286 cumulative IPC: 0.308629 (Simulation time: 0 hr 31 min 12 sec) 
Heartbeat CPU 0 instructions: 670000000 cycles: 1892754463 heartbeat IPC: 0.268076 cumulative IPC: 0.307812 (Simulation time: 0 hr 31 min 44 sec) 
Heartbeat CPU 0 instructions: 680000000 cycles: 1946985367 heartbeat IPC: 0.184397 cumulative IPC: 0.3043 (Simulation time: 0 hr 32 min 27 sec) 
Heartbeat CPU 0 instructions: 690000003 cycles: 1973078707 heartbeat IPC: 0.38324 cumulative IPC: 0.305367 (Simulation time: 0 hr 32 min 56 sec) 
Heartbeat CPU 0 instructions: 700000003 cycles: 2003441283 heartbeat IPC: 0.329353 cumulative IPC: 0.305738 (Simulation time: 0 hr 33 min 25 sec) 
Heartbeat CPU 0 instructions: 710000002 cycles: 2038433952 heartbeat IPC: 0.285774 cumulative IPC: 0.305388 (Simulation time: 0 hr 33 min 58 sec) 
Heartbeat CPU 0 instructions: 720000002 cycles: 2074300713 heartbeat IPC: 0.27881 cumulative IPC: 0.304919 (Simulation time: 0 hr 34 min 31 sec) 
Heartbeat CPU 0 instructions: 730000001 cycles: 2110329835 heartbeat IPC: 0.277553 cumulative IPC: 0.304443 (Simulation time: 0 hr 35 min 3 sec) 
Heartbeat CPU 0 instructions: 740000002 cycles: 2146308602 heartbeat IPC: 0.277942 cumulative IPC: 0.30399 (Simulation time: 0 hr 35 min 36 sec) 
Heartbeat CPU 0 instructions: 750000003 cycles: 2182414816 heartbeat IPC: 0.276961 cumulative IPC: 0.303534 (Simulation time: 0 hr 36 min 9 sec) 
Heartbeat CPU 0 instructions: 760000001 cycles: 2219042619 heartbeat IPC: 0.273017 cumulative IPC: 0.303021 (Simulation time: 0 hr 36 min 42 sec) 
Heartbeat CPU 0 instructions: 770000000 cycles: 2255842068 heartbeat IPC: 0.271743 cumulative IPC: 0.302501 (Simulation time: 0 hr 37 min 16 sec) 
Heartbeat CPU 0 instructions: 780000000 cycles: 2290977565 heartbeat IPC: 0.284612 cumulative IPC: 0.302222 (Simulation time: 0 hr 37 min 48 sec) 
Heartbeat CPU 0 instructions: 790000001 cycles: 2326515898 heartbeat IPC: 0.281386 cumulative IPC: 0.301898 (Simulation time: 0 hr 38 min 20 sec) 
Heartbeat CPU 0 instructions: 800000003 cycles: 2380004522 heartbeat IPC: 0.186956 cumulative IPC: 0.299269 (Simulation time: 0 hr 39 min 0 sec) 
Heartbeat CPU 0 instructions: 810000003 cycles: 2406945184 heartbeat IPC: 0.371186 cumulative IPC: 0.300088 (Simulation time: 0 hr 39 min 29 sec) 
Heartbeat CPU 0 instructions: 820000003 cycles: 2437278743 heartbeat IPC: 0.329668 cumulative IPC: 0.300463 (Simulation time: 0 hr 39 min 59 sec) 
Heartbeat CPU 0 instructions: 830000001 cycles: 2474923694 heartbeat IPC: 0.26564 cumulative IPC: 0.299924 (Simulation time: 0 hr 40 min 33 sec) 
Heartbeat CPU 0 instructions: 840000000 cycles: 2505432172 heartbeat IPC: 0.327778 cumulative IPC: 0.300269 (Simulation time: 0 hr 41 min 2 sec) 
Heartbeat CPU 0 instructions: 850000003 cycles: 2538412308 heartbeat IPC: 0.303213 cumulative IPC: 0.300308 (Simulation time: 0 hr 41 min 33 sec) 
Heartbeat CPU 0 instructions: 860000000 cycles: 2568841274 heartbeat IPC: 0.328634 cumulative IPC: 0.300649 (Simulation time: 0 hr 42 min 0 sec) 
Heartbeat CPU 0 instructions: 870000002 cycles: 2597715131 heartbeat IPC: 0.346334 cumulative IPC: 0.301165 (Simulation time: 0 hr 42 min 27 sec) 
Heartbeat CPU 0 instructions: 880000000 cycles: 2630041446 heartbeat IPC: 0.309345 cumulative IPC: 0.301267 (Simulation time: 0 hr 42 min 56 sec) 
Heartbeat CPU 0 instructions: 890000003 cycles: 2661819298 heartbeat IPC: 0.314685 cumulative IPC: 0.30143 (Simulation time: 0 hr 43 min 26 sec) 
Heartbeat CPU 0 instructions: 900000001 cycles: 2698688101 heartbeat IPC: 0.271232 cumulative IPC: 0.301011 (Simulation time: 0 hr 43 min 55 sec) 
Heartbeat CPU 0 instructions: 910000003 cycles: 2738135461 heartbeat IPC: 0.253502 cumulative IPC: 0.300316 (Simulation time: 0 hr 44 min 28 sec) 
Heartbeat CPU 0 instructions: 920000000 cycles: 2765933114 heartbeat IPC: 0.359742 cumulative IPC: 0.300922 (Simulation time: 0 hr 45 min 0 sec) 
Heartbeat CPU 0 instructions: 930000002 cycles: 2797673310 heartbeat IPC: 0.315058 cumulative IPC: 0.301085 (Simulation time: 0 hr 45 min 29 sec) 
Heartbeat CPU 0 instructions: 940000001 cycles: 2826845278 heartbeat IPC: 0.342795 cumulative IPC: 0.301522 (Simulation time: 0 hr 45 min 56 sec) 
Heartbeat CPU 0 instructions: 950000001 cycles: 2862158660 heartbeat IPC: 0.283179 cumulative IPC: 0.301292 (Simulation time: 0 hr 46 min 28 sec) 
Heartbeat CPU 0 instructions: 960000000 cycles: 2894120395 heartbeat IPC: 0.312874 cumulative IPC: 0.301422 (Simulation time: 0 hr 46 min 57 sec) 
Heartbeat CPU 0 instructions: 970000001 cycles: 2929906165 heartbeat IPC: 0.279441 cumulative IPC: 0.301149 (Simulation time: 0 hr 47 min 29 sec) 
Heartbeat CPU 0 instructions: 980000000 cycles: 2964897532 heartbeat IPC: 0.285785 cumulative IPC: 0.300966 (Simulation time: 0 hr 48 min 1 sec) 
Heartbeat CPU 0 instructions: 990000000 cycles: 3000190770 heartbeat IPC: 0.28334 cumulative IPC: 0.300755 (Simulation time: 0 hr 48 min 34 sec) 
Heartbeat CPU 0 instructions: 1000000001 cycles: 3031993307 heartbeat IPC: 0.31444 cumulative IPC: 0.300901 (Simulation time: 0 hr 49 min 3 sec) 
Heartbeat CPU 0 instructions: 1010000001 cycles: 3073762191 heartbeat IPC: 0.239413 cumulative IPC: 0.300054 (Simulation time: 0 hr 49 min 40 sec) 
Heartbeat CPU 0 instructions: 1020000001 cycles: 3120897426 heartbeat IPC: 0.212156 cumulative IPC: 0.298709 (Simulation time: 0 hr 50 min 16 sec) 
Heartbeat CPU 0 instructions: 1030000001 cycles: 3146671556 heartbeat IPC: 0.387986 cumulative IPC: 0.29945 (Simulation time: 0 hr 50 min 46 sec) 
Heartbeat CPU 0 instructions: 1040000002 cycles: 3182743938 heartbeat IPC: 0.27722 cumulative IPC: 0.299194 (Simulation time: 0 hr 51 min 18 sec) 
Heartbeat CPU 0 instructions: 1050000000 cycles: 3218702883 heartbeat IPC: 0.278095 cumulative IPC: 0.298956 (Simulation time: 0 hr 51 min 51 sec) 
Heartbeat CPU 0 instructions: 1060000003 cycles: 3255213819 heartbeat IPC: 0.273891 cumulative IPC: 0.298671 (Simulation time: 0 hr 52 min 24 sec) 
Heartbeat CPU 0 instructions: 1070000000 cycles: 3292712492 heartbeat IPC: 0.266676 cumulative IPC: 0.298302 (Simulation time: 0 hr 52 min 58 sec) 
Heartbeat CPU 0 instructions: 1080000000 cycles: 3329205243 heartbeat IPC: 0.274027 cumulative IPC: 0.298033 (Simulation time: 0 hr 53 min 31 sec) 
Heartbeat CPU 0 instructions: 1090000000 cycles: 3364405530 heartbeat IPC: 0.284089 cumulative IPC: 0.297885 (Simulation time: 0 hr 54 min 2 sec) 
Heartbeat CPU 0 instructions: 1100000000 cycles: 3400545801 heartbeat IPC: 0.2767 cumulative IPC: 0.297657 (Simulation time: 0 hr 54 min 34 sec) 
Finished CPU 0 instructions: 1000000001 cycles: 3359571409 cumulative IPC: 0.297657 (Simulation time: 0 hr 54 min 34 sec) 

ChampSim completed all CPUs

Region of Interest Statistics

CPU 0 cumulative IPC: 0.297657 instructions: 1000000001 cycles: 3359571409
L1D TOTAL     ACCESS:  222000905  HIT:  168830137  MISS:   53170768
L1D LOAD      ACCESS:  169527491  HIT:  123957411  MISS:   45570080
L1D RFO       ACCESS:   52473414  HIT:   44872726  MISS:    7600688
L1D PREFETCH  ACCESS:          0  HIT:          0  MISS:          0
L1D WRITEBACK ACCESS:          0  HIT:          0  MISS:          0
L1D PREFETCH  REQUESTED:          0  ISSUED:          0  USEFUL:          0  USELESS:          0
L1D AVERAGE MISS LATENCY: 143.829 cycles
L1I TOTAL     ACCESS:  184264700  HIT:  184258228  MISS:       6472
L1I LOAD      ACCESS:  184264700  HIT:  184258228  MISS:       6472
L1I RFO       ACCESS:          0  HIT:          0  MISS:          0
L1I PREFETCH  ACCESS:          0  HIT:          0  MISS:          0
L1I WRITEBACK ACCESS:          0  HIT:          0  MISS:          0
L1I PREFETCH  REQUESTED:          0  ISSUED:          0  USEFUL:          0  USELESS:          0
L1I AVERAGE MISS LATENCY: 255.816 cycles
L2C TOTAL     ACCESS:   75503929  HIT:   31809047  MISS:   43694882
L2C LOAD      ACCESS:   45571193  HIT:    8558153  MISS:   37013040
L2C RFO       ACCESS:    7599943  HIT:     919510  MISS:    6680433
L2C PREFETCH  ACCESS:          0  HIT:          0  MISS:          0
L2C WRITEBACK ACCESS:   22332793  HIT:   22331384  MISS:       1409
L2C PREFETCH  REQUESTED:          0  ISSUED:          0  USEFUL:          0  USELESS:          0
L2C AVERAGE MISS LATENCY: 159.431 cycles
LLC TOTAL     ACCESS:   60401087  HIT:   28638313  MISS:   31762774
LLC LOAD      ACCESS:   37012280  HIT:   14326829  MISS:   22685451
LLC RFO       ACCESS:    6680359  HIT:    1867288  MISS:    4813071
LLC PREFETCH  ACCESS:          0  HIT:          0  MISS:          0
LLC WRITEBACK ACCESS:   16708448  HIT:   12444196  MISS:    4264252
LLC PREFETCH  REQUESTED:          0  ISSUED:          0  USEFUL:          0  USELESS:          0
LLC AVERAGE MISS LATENCY: 162.69 cycles
Major fault: 0 Minor fault: 14410

DRAM Statistics
 CHANNEL 0
 RQ ROW_BUFFER_HIT:    8758280  ROW_BUFFER_MISS:   18737527
 DBUS_CONGESTED:   12372690
 WQ ROW_BUFFER_HIT:    4532963  ROW_BUFFER_MISS:    4821544  FULL:     286955

 AVG_CONGESTED_CYCLE: 6

CPU 0 Branch Prediction Accuracy: 94.4773% MPKI: 9.83563 Average ROB Occupancy at Mispredict: 51.3632

Branch types
NOT_BRANCH: 821905510 82.1906%
BRANCH_DIRECT_JUMP: 1848268 0.184827%
BRANCH_INDIRECT: 279 2.79e-05%
BRANCH_CONDITIONAL: 175056792 17.5057%
BRANCH_DIRECT_CALL: 592763 0.0592763%
BRANCH_INDIRECT_CALL: 1626 0.0001626%
BRANCH_RETURN: 594393 0.0594393%
BRANCH_OTHER: 0 0%

