
*** ChampSim Multicore Out-of-Order Simulator ***

Warmup Instructions: 100000000
Simulation Instructions: 1000000000
Number of CPUs: 1
LLC sets: 2048
LLC ways: 16
Off-chip DRAM Size: 4096 MB Channels: 1 Width: 64-bit Data Rate: 3200 MT/s

CPU 0 runs /scratch/user/kevin.weston/dpc3-traces/450.champsimtrace.xz
CPU 0 Bimodal branch predictor
Per-line RRPV Initialized
PRRIP State Initialized
Assign SAMPLER_SET[0]: 454  LLC: 2048
SAMPLER_SET[0]: 454
Assign SAMPLER_SET[1]: 1662  LLC: 2048
SAMPLER_SET[1]: 1662
Assign SAMPLER_SET[2]: 1921  LLC: 2048
SAMPLER_SET[2]: 1921
Assign SAMPLER_SET[3]: 1131  LLC: 2048
SAMPLER_SET[3]: 1131
Assign SAMPLER_SET[4]: 331  LLC: 2048
SAMPLER_SET[4]: 331
Assign SAMPLER_SET[5]: 1531  LLC: 2048
SAMPLER_SET[5]: 1531
Assign SAMPLER_SET[6]: 482  LLC: 2048
SAMPLER_SET[6]: 482
Assign SAMPLER_SET[7]: 1275  LLC: 2048
SAMPLER_SET[7]: 1275
Assign SAMPLER_SET[8]: 1876  LLC: 2048
SAMPLER_SET[8]: 1876
Assign SAMPLER_SET[9]: 2038  LLC: 2048
SAMPLER_SET[9]: 2038
Assign SAMPLER_SET[10]: 701  LLC: 2048
SAMPLER_SET[10]: 701
Assign SAMPLER_SET[11]: 479  LLC: 2048
SAMPLER_SET[11]: 479
Assign SAMPLER_SET[12]: 892  LLC: 2048
SAMPLER_SET[12]: 892
Assign SAMPLER_SET[13]: 1820  LLC: 2048
SAMPLER_SET[13]: 1820
Assign SAMPLER_SET[14]: 1505  LLC: 2048
SAMPLER_SET[14]: 1505
Assign SAMPLER_SET[15]: 1159  LLC: 2048
SAMPLER_SET[15]: 1159
Assign SAMPLER_SET[16]: 513  LLC: 2048
SAMPLER_SET[16]: 513
Assign SAMPLER_SET[17]: 703  LLC: 2048
SAMPLER_SET[17]: 703
Assign SAMPLER_SET[18]: 561  LLC: 2048
SAMPLER_SET[18]: 561
Assign SAMPLER_SET[19]: 990  LLC: 2048
SAMPLER_SET[19]: 990
Assign SAMPLER_SET[20]: 342  LLC: 2048
SAMPLER_SET[20]: 342
Assign SAMPLER_SET[21]: 882  LLC: 2048
SAMPLER_SET[21]: 882
Assign SAMPLER_SET[22]: 15  LLC: 2048
SAMPLER_SET[22]: 15
Assign SAMPLER_SET[23]: 71  LLC: 2048
SAMPLER_SET[23]: 71
Assign SAMPLER_SET[24]: 1127  LLC: 2048
SAMPLER_SET[24]: 1127
Assign SAMPLER_SET[25]: 1382  LLC: 2048
SAMPLER_SET[25]: 1382
Assign SAMPLER_SET[26]: 647  LLC: 2048
SAMPLER_SET[26]: 647
Assign SAMPLER_SET[27]: 857  LLC: 2048
SAMPLER_SET[27]: 857
Assign SAMPLER_SET[28]: 1450  LLC: 2048
SAMPLER_SET[28]: 1450
Assign SAMPLER_SET[29]: 1160  LLC: 2048
SAMPLER_SET[29]: 1160
Assign SAMPLER_SET[30]: 1852  LLC: 2048
SAMPLER_SET[30]: 1852
Assign SAMPLER_SET[31]: 1881  LLC: 2048
SAMPLER_SET[31]: 1881
Assign SAMPLER_SET[32]: 1770  LLC: 2048
SAMPLER_SET[32]: 1770
Assign SAMPLER_SET[33]: 1622  LLC: 2048
SAMPLER_SET[33]: 1622
Assign SAMPLER_SET[34]: 275  LLC: 2048
SAMPLER_SET[34]: 275
Assign SAMPLER_SET[35]: 635  LLC: 2048
SAMPLER_SET[35]: 635
Assign SAMPLER_SET[36]: 466  LLC: 2048
SAMPLER_SET[36]: 466
Assign SAMPLER_SET[37]: 1413  LLC: 2048
SAMPLER_SET[37]: 1413
Assign SAMPLER_SET[38]: 417  LLC: 2048
SAMPLER_SET[38]: 417
Assign SAMPLER_SET[39]: 472  LLC: 2048
SAMPLER_SET[39]: 472
Assign SAMPLER_SET[40]: 1340  LLC: 2048
SAMPLER_SET[40]: 1340
Assign SAMPLER_SET[41]: 852  LLC: 2048
SAMPLER_SET[41]: 852
Assign SAMPLER_SET[42]: 1365  LLC: 2048
SAMPLER_SET[42]: 1365
Assign SAMPLER_SET[43]: 47  LLC: 2048
SAMPLER_SET[43]: 47
Assign SAMPLER_SET[44]: 823  LLC: 2048
SAMPLER_SET[44]: 823
Assign SAMPLER_SET[45]: 686  LLC: 2048
SAMPLER_SET[45]: 686
Assign SAMPLER_SET[46]: 1637  LLC: 2048
SAMPLER_SET[46]: 1637
Assign SAMPLER_SET[47]: 1115  LLC: 2048
SAMPLER_SET[47]: 1115
Assign SAMPLER_SET[48]: 986  LLC: 2048
SAMPLER_SET[48]: 986
Assign SAMPLER_SET[49]: 258  LLC: 2048
SAMPLER_SET[49]: 258
Assign SAMPLER_SET[50]: 633  LLC: 2048
SAMPLER_SET[50]: 633
Assign SAMPLER_SET[51]: 920  LLC: 2048
SAMPLER_SET[51]: 920
Assign SAMPLER_SET[52]: 204  LLC: 2048
SAMPLER_SET[52]: 204
Assign SAMPLER_SET[53]: 227  LLC: 2048
SAMPLER_SET[53]: 227
Assign SAMPLER_SET[54]: 1818  LLC: 2048
SAMPLER_SET[54]: 1818
Assign SAMPLER_SET[55]: 886  LLC: 2048
SAMPLER_SET[55]: 886
Assign SAMPLER_SET[56]: 1422  LLC: 2048
SAMPLER_SET[56]: 1422
Assign SAMPLER_SET[57]: 607  LLC: 2048
SAMPLER_SET[57]: 607
Assign SAMPLER_SET[58]: 217  LLC: 2048
SAMPLER_SET[58]: 217
Assign SAMPLER_SET[59]: 1945  LLC: 2048
SAMPLER_SET[59]: 1945
Assign SAMPLER_SET[60]: 143  LLC: 2048
SAMPLER_SET[60]: 143
Assign SAMPLER_SET[61]: 1311  LLC: 2048
SAMPLER_SET[61]: 1311
Assign SAMPLER_SET[62]: 319  LLC: 2048
SAMPLER_SET[62]: 319
Assign SAMPLER_SET[63]: 1846  LLC: 2048
SAMPLER_SET[63]: 1846
Heartbeat CPU 0 instructions: 10000002 cycles: 4636853 heartbeat IPC: 2.15664 cumulative IPC: 2.15664 (Simulation time: 0 hr 0 min 25 sec) 
Heartbeat CPU 0 instructions: 20000001 cycles: 8705424 heartbeat IPC: 2.45787 cumulative IPC: 2.29742 (Simulation time: 0 hr 0 min 46 sec) 
Heartbeat CPU 0 instructions: 30000003 cycles: 12755759 heartbeat IPC: 2.46893 cumulative IPC: 2.35188 (Simulation time: 0 hr 1 min 8 sec) 
Heartbeat CPU 0 instructions: 40000002 cycles: 16775742 heartbeat IPC: 2.48757 cumulative IPC: 2.3844 (Simulation time: 0 hr 1 min 29 sec) 
Heartbeat CPU 0 instructions: 50000000 cycles: 20799556 heartbeat IPC: 2.4852 cumulative IPC: 2.4039 (Simulation time: 0 hr 1 min 50 sec) 
Heartbeat CPU 0 instructions: 60000002 cycles: 24833102 heartbeat IPC: 2.47921 cumulative IPC: 2.41613 (Simulation time: 0 hr 2 min 11 sec) 
Heartbeat CPU 0 instructions: 70000000 cycles: 28794344 heartbeat IPC: 2.52446 cumulative IPC: 2.43103 (Simulation time: 0 hr 2 min 32 sec) 
Heartbeat CPU 0 instructions: 80000001 cycles: 32807960 heartbeat IPC: 2.49152 cumulative IPC: 2.43843 (Simulation time: 0 hr 2 min 53 sec) 
Heartbeat CPU 0 instructions: 90000002 cycles: 36863929 heartbeat IPC: 2.4655 cumulative IPC: 2.44141 (Simulation time: 0 hr 3 min 14 sec) 
Heartbeat CPU 0 instructions: 100000003 cycles: 40941873 heartbeat IPC: 2.45222 cumulative IPC: 2.44249 (Simulation time: 0 hr 3 min 36 sec) 

Warmup complete CPU 0 instructions: 100000003 cycles: 40941873 (Simulation time: 0 hr 3 min 36 sec) 

Heartbeat CPU 0 instructions: 110000000 cycles: 89914860 heartbeat IPC: 0.204194 cumulative IPC: 0.204194 (Simulation time: 0 hr 4 min 10 sec) 
Heartbeat CPU 0 instructions: 120000003 cycles: 116586569 heartbeat IPC: 0.374929 cumulative IPC: 0.264394 (Simulation time: 0 hr 4 min 40 sec) 
Heartbeat CPU 0 instructions: 130000002 cycles: 152112120 heartbeat IPC: 0.281488 cumulative IPC: 0.269856 (Simulation time: 0 hr 5 min 11 sec) 
Heartbeat CPU 0 instructions: 140000003 cycles: 181536548 heartbeat IPC: 0.339854 cumulative IPC: 0.284506 (Simulation time: 0 hr 5 min 37 sec) 
Heartbeat CPU 0 instructions: 150000003 cycles: 211009644 heartbeat IPC: 0.339292 cumulative IPC: 0.294 (Simulation time: 0 hr 6 min 2 sec) 
Heartbeat CPU 0 instructions: 160000002 cycles: 243740504 heartbeat IPC: 0.305522 cumulative IPC: 0.29586 (Simulation time: 0 hr 6 min 30 sec) 
Heartbeat CPU 0 instructions: 170000001 cycles: 276053113 heartbeat IPC: 0.309477 cumulative IPC: 0.297731 (Simulation time: 0 hr 6 min 58 sec) 
Heartbeat CPU 0 instructions: 180000002 cycles: 306639517 heartbeat IPC: 0.326943 cumulative IPC: 0.301094 (Simulation time: 0 hr 7 min 25 sec) 
Heartbeat CPU 0 instructions: 190000002 cycles: 337307373 heartbeat IPC: 0.326074 cumulative IPC: 0.303679 (Simulation time: 0 hr 7 min 53 sec) 
Heartbeat CPU 0 instructions: 200000003 cycles: 371591029 heartbeat IPC: 0.291684 cumulative IPC: 0.302435 (Simulation time: 0 hr 8 min 23 sec) 
Heartbeat CPU 0 instructions: 210000001 cycles: 416463262 heartbeat IPC: 0.222855 cumulative IPC: 0.292926 (Simulation time: 0 hr 8 min 53 sec) 
Heartbeat CPU 0 instructions: 220000000 cycles: 445618521 heartbeat IPC: 0.342991 cumulative IPC: 0.296533 (Simulation time: 0 hr 9 min 23 sec) 
Heartbeat CPU 0 instructions: 230000001 cycles: 476208860 heartbeat IPC: 0.326901 cumulative IPC: 0.298667 (Simulation time: 0 hr 9 min 53 sec) 
Heartbeat CPU 0 instructions: 240000002 cycles: 509284680 heartbeat IPC: 0.302336 cumulative IPC: 0.298926 (Simulation time: 0 hr 10 min 21 sec) 
Heartbeat CPU 0 instructions: 250000001 cycles: 541874104 heartbeat IPC: 0.306848 cumulative IPC: 0.299442 (Simulation time: 0 hr 10 min 49 sec) 
Heartbeat CPU 0 instructions: 260000003 cycles: 573444540 heartbeat IPC: 0.316752 cumulative IPC: 0.300468 (Simulation time: 0 hr 11 min 17 sec) 
Heartbeat CPU 0 instructions: 270000003 cycles: 604144889 heartbeat IPC: 0.325729 cumulative IPC: 0.301845 (Simulation time: 0 hr 11 min 45 sec) 
Heartbeat CPU 0 instructions: 280000003 cycles: 637738986 heartbeat IPC: 0.297671 cumulative IPC: 0.30161 (Simulation time: 0 hr 12 min 14 sec) 
Heartbeat CPU 0 instructions: 290000000 cycles: 667323980 heartbeat IPC: 0.338009 cumulative IPC: 0.303329 (Simulation time: 0 hr 12 min 39 sec) 
Heartbeat CPU 0 instructions: 300000002 cycles: 697790032 heartbeat IPC: 0.328234 cumulative IPC: 0.304484 (Simulation time: 0 hr 13 min 6 sec) 
Heartbeat CPU 0 instructions: 310000002 cycles: 728291533 heartbeat IPC: 0.327853 cumulative IPC: 0.305521 (Simulation time: 0 hr 13 min 33 sec) 
Heartbeat CPU 0 instructions: 320000001 cycles: 777103449 heartbeat IPC: 0.204868 cumulative IPC: 0.298847 (Simulation time: 0 hr 14 min 8 sec) 
Heartbeat CPU 0 instructions: 330000000 cycles: 805651448 heartbeat IPC: 0.350287 cumulative IPC: 0.300768 (Simulation time: 0 hr 14 min 37 sec) 
Heartbeat CPU 0 instructions: 340000000 cycles: 837661228 heartbeat IPC: 0.312405 cumulative IPC: 0.301235 (Simulation time: 0 hr 15 min 7 sec) 
Heartbeat CPU 0 instructions: 350000003 cycles: 870278147 heartbeat IPC: 0.306589 cumulative IPC: 0.301446 (Simulation time: 0 hr 15 min 35 sec) 
Heartbeat CPU 0 instructions: 360000002 cycles: 901285153 heartbeat IPC: 0.322508 cumulative IPC: 0.302205 (Simulation time: 0 hr 16 min 2 sec) 
Heartbeat CPU 0 instructions: 370000001 cycles: 932437667 heartbeat IPC: 0.321001 cumulative IPC: 0.302862 (Simulation time: 0 hr 16 min 30 sec) 
Heartbeat CPU 0 instructions: 380000002 cycles: 963768959 heartbeat IPC: 0.31917 cumulative IPC: 0.303415 (Simulation time: 0 hr 16 min 57 sec) 
Heartbeat CPU 0 instructions: 390000000 cycles: 994747736 heartbeat IPC: 0.322802 cumulative IPC: 0.304045 (Simulation time: 0 hr 17 min 24 sec) 
Heartbeat CPU 0 instructions: 400000003 cycles: 1025638923 heartbeat IPC: 0.323717 cumulative IPC: 0.304662 (Simulation time: 0 hr 17 min 52 sec) 
Heartbeat CPU 0 instructions: 410000000 cycles: 1057289768 heartbeat IPC: 0.315947 cumulative IPC: 0.305014 (Simulation time: 0 hr 18 min 19 sec) 
Heartbeat CPU 0 instructions: 420000002 cycles: 1088807874 heartbeat IPC: 0.317278 cumulative IPC: 0.305383 (Simulation time: 0 hr 18 min 47 sec) 
Heartbeat CPU 0 instructions: 430000001 cycles: 1120205575 heartbeat IPC: 0.318495 cumulative IPC: 0.305764 (Simulation time: 0 hr 19 min 14 sec) 
Heartbeat CPU 0 instructions: 440000000 cycles: 1170168940 heartbeat IPC: 0.200147 cumulative IPC: 0.301091 (Simulation time: 0 hr 19 min 50 sec) 
Heartbeat CPU 0 instructions: 450000001 cycles: 1197136133 heartbeat IPC: 0.370821 cumulative IPC: 0.302717 (Simulation time: 0 hr 20 min 20 sec) 
Heartbeat CPU 0 instructions: 460000000 cycles: 1230999568 heartbeat IPC: 0.295304 cumulative IPC: 0.302506 (Simulation time: 0 hr 20 min 50 sec) 
Heartbeat CPU 0 instructions: 470000001 cycles: 1262007497 heartbeat IPC: 0.322498 cumulative IPC: 0.303014 (Simulation time: 0 hr 21 min 17 sec) 
Heartbeat CPU 0 instructions: 480000000 cycles: 1293347572 heartbeat IPC: 0.31908 cumulative IPC: 0.303416 (Simulation time: 0 hr 21 min 44 sec) 
Heartbeat CPU 0 instructions: 490000003 cycles: 1324735448 heartbeat IPC: 0.318594 cumulative IPC: 0.303787 (Simulation time: 0 hr 22 min 12 sec) 
Heartbeat CPU 0 instructions: 500000000 cycles: 1355274005 heartbeat IPC: 0.327455 cumulative IPC: 0.304337 (Simulation time: 0 hr 22 min 39 sec) 
Heartbeat CPU 0 instructions: 510000000 cycles: 1386137435 heartbeat IPC: 0.324008 cumulative IPC: 0.304788 (Simulation time: 0 hr 23 min 7 sec) 
Heartbeat CPU 0 instructions: 520000001 cycles: 1417247164 heartbeat IPC: 0.321443 cumulative IPC: 0.305165 (Simulation time: 0 hr 23 min 34 sec) 
Heartbeat CPU 0 instructions: 530000002 cycles: 1448150733 heartbeat IPC: 0.323587 cumulative IPC: 0.305569 (Simulation time: 0 hr 24 min 2 sec) 
Heartbeat CPU 0 instructions: 540000002 cycles: 1478616633 heartbeat IPC: 0.328236 cumulative IPC: 0.30605 (Simulation time: 0 hr 24 min 29 sec) 
Heartbeat CPU 0 instructions: 550000000 cycles: 1509330459 heartbeat IPC: 0.325586 cumulative IPC: 0.306458 (Simulation time: 0 hr 24 min 57 sec) 
Heartbeat CPU 0 instructions: 560000001 cycles: 1557650275 heartbeat IPC: 0.206954 cumulative IPC: 0.303288 (Simulation time: 0 hr 25 min 31 sec) 
Heartbeat CPU 0 instructions: 570000001 cycles: 1584171495 heartbeat IPC: 0.377057 cumulative IPC: 0.304556 (Simulation time: 0 hr 26 min 1 sec) 
Heartbeat CPU 0 instructions: 580000001 cycles: 1622302648 heartbeat IPC: 0.262253 cumulative IPC: 0.303536 (Simulation time: 0 hr 26 min 33 sec) 
Heartbeat CPU 0 instructions: 590000001 cycles: 1654120218 heartbeat IPC: 0.314292 cumulative IPC: 0.303748 (Simulation time: 0 hr 27 min 0 sec) 
Heartbeat CPU 0 instructions: 600000002 cycles: 1685916478 heartbeat IPC: 0.314502 cumulative IPC: 0.303956 (Simulation time: 0 hr 27 min 28 sec) 
Heartbeat CPU 0 instructions: 610000001 cycles: 1717589062 heartbeat IPC: 0.31573 cumulative IPC: 0.304178 (Simulation time: 0 hr 27 min 56 sec) 
Heartbeat CPU 0 instructions: 620000000 cycles: 1753986739 heartbeat IPC: 0.274743 cumulative IPC: 0.303553 (Simulation time: 0 hr 28 min 27 sec) 
Heartbeat CPU 0 instructions: 630000003 cycles: 1790539777 heartbeat IPC: 0.273575 cumulative IPC: 0.302927 (Simulation time: 0 hr 28 min 58 sec) 
Heartbeat CPU 0 instructions: 640000002 cycles: 1826379546 heartbeat IPC: 0.27902 cumulative IPC: 0.302447 (Simulation time: 0 hr 29 min 27 sec) 
Heartbeat CPU 0 instructions: 650000001 cycles: 1858669583 heartbeat IPC: 0.309693 cumulative IPC: 0.302576 (Simulation time: 0 hr 29 min 55 sec) 
Heartbeat CPU 0 instructions: 660000000 cycles: 1893350186 heartbeat IPC: 0.288346 cumulative IPC: 0.302309 (Simulation time: 0 hr 30 min 25 sec) 
Heartbeat CPU 0 instructions: 670000000 cycles: 1927938518 heartbeat IPC: 0.289115 cumulative IPC: 0.302067 (Simulation time: 0 hr 30 min 54 sec) 
Heartbeat CPU 0 instructions: 680000000 cycles: 1982802111 heartbeat IPC: 0.18227 cumulative IPC: 0.298683 (Simulation time: 0 hr 31 min 35 sec) 
Heartbeat CPU 0 instructions: 690000001 cycles: 2010185100 heartbeat IPC: 0.36519 cumulative IPC: 0.299607 (Simulation time: 0 hr 32 min 4 sec) 
Heartbeat CPU 0 instructions: 700000003 cycles: 2042025140 heartbeat IPC: 0.31407 cumulative IPC: 0.299838 (Simulation time: 0 hr 32 min 32 sec) 
Heartbeat CPU 0 instructions: 710000000 cycles: 2077053238 heartbeat IPC: 0.285485 cumulative IPC: 0.299591 (Simulation time: 0 hr 33 min 3 sec) 
Heartbeat CPU 0 instructions: 720000002 cycles: 2113008082 heartbeat IPC: 0.278127 cumulative IPC: 0.299218 (Simulation time: 0 hr 33 min 34 sec) 
Heartbeat CPU 0 instructions: 730000001 cycles: 2148496616 heartbeat IPC: 0.281781 cumulative IPC: 0.298925 (Simulation time: 0 hr 34 min 4 sec) 
Heartbeat CPU 0 instructions: 740000002 cycles: 2184245203 heartbeat IPC: 0.279731 cumulative IPC: 0.298604 (Simulation time: 0 hr 34 min 35 sec) 
Heartbeat CPU 0 instructions: 750000003 cycles: 2220221189 heartbeat IPC: 0.277963 cumulative IPC: 0.298264 (Simulation time: 0 hr 35 min 6 sec) 
Heartbeat CPU 0 instructions: 760000001 cycles: 2256413547 heartbeat IPC: 0.276301 cumulative IPC: 0.297905 (Simulation time: 0 hr 35 min 37 sec) 
Heartbeat CPU 0 instructions: 770000000 cycles: 2292683419 heartbeat IPC: 0.275711 cumulative IPC: 0.297547 (Simulation time: 0 hr 36 min 8 sec) 
Heartbeat CPU 0 instructions: 780000000 cycles: 2328320929 heartbeat IPC: 0.280603 cumulative IPC: 0.297283 (Simulation time: 0 hr 36 min 39 sec) 
Heartbeat CPU 0 instructions: 790000002 cycles: 2363835693 heartbeat IPC: 0.281573 cumulative IPC: 0.297043 (Simulation time: 0 hr 37 min 9 sec) 
Heartbeat CPU 0 instructions: 800000003 cycles: 2418025807 heartbeat IPC: 0.184536 cumulative IPC: 0.294478 (Simulation time: 0 hr 37 min 49 sec) 
Heartbeat CPU 0 instructions: 810000003 cycles: 2447123965 heartbeat IPC: 0.343664 cumulative IPC: 0.295073 (Simulation time: 0 hr 38 min 18 sec) 
Heartbeat CPU 0 instructions: 820000003 cycles: 2478625661 heartbeat IPC: 0.317443 cumulative IPC: 0.295362 (Simulation time: 0 hr 38 min 48 sec) 
Heartbeat CPU 0 instructions: 830000001 cycles: 2515787496 heartbeat IPC: 0.269093 cumulative IPC: 0.294968 (Simulation time: 0 hr 39 min 19 sec) 
Heartbeat CPU 0 instructions: 840000000 cycles: 2547262564 heartbeat IPC: 0.317712 cumulative IPC: 0.295254 (Simulation time: 0 hr 39 min 47 sec) 
Heartbeat CPU 0 instructions: 850000003 cycles: 2580753219 heartbeat IPC: 0.298591 cumulative IPC: 0.295298 (Simulation time: 0 hr 40 min 16 sec) 
Heartbeat CPU 0 instructions: 860000000 cycles: 2611675799 heartbeat IPC: 0.323388 cumulative IPC: 0.295635 (Simulation time: 0 hr 40 min 43 sec) 
Heartbeat CPU 0 instructions: 870000002 cycles: 2641440849 heartbeat IPC: 0.335965 cumulative IPC: 0.296097 (Simulation time: 0 hr 41 min 9 sec) 
Heartbeat CPU 0 instructions: 880000000 cycles: 2674192234 heartbeat IPC: 0.305331 cumulative IPC: 0.296212 (Simulation time: 0 hr 41 min 37 sec) 
Heartbeat CPU 0 instructions: 890000003 cycles: 2707258496 heartbeat IPC: 0.302423 cumulative IPC: 0.296289 (Simulation time: 0 hr 42 min 6 sec) 
Heartbeat CPU 0 instructions: 900000001 cycles: 2745191965 heartbeat IPC: 0.263619 cumulative IPC: 0.295831 (Simulation time: 0 hr 42 min 34 sec) 
Heartbeat CPU 0 instructions: 910000003 cycles: 2787013073 heartbeat IPC: 0.239114 cumulative IPC: 0.294967 (Simulation time: 0 hr 43 min 8 sec) 
Heartbeat CPU 0 instructions: 920000000 cycles: 2815967845 heartbeat IPC: 0.345366 cumulative IPC: 0.295493 (Simulation time: 0 hr 43 min 40 sec) 
Heartbeat CPU 0 instructions: 930000002 cycles: 2848210592 heartbeat IPC: 0.310147 cumulative IPC: 0.295661 (Simulation time: 0 hr 44 min 8 sec) 
Heartbeat CPU 0 instructions: 940000001 cycles: 2878272376 heartbeat IPC: 0.332648 cumulative IPC: 0.296053 (Simulation time: 0 hr 44 min 34 sec) 
Heartbeat CPU 0 instructions: 950000001 cycles: 2913283428 heartbeat IPC: 0.285624 cumulative IPC: 0.295926 (Simulation time: 0 hr 45 min 5 sec) 
Heartbeat CPU 0 instructions: 960000000 cycles: 2945984453 heartbeat IPC: 0.305801 cumulative IPC: 0.296037 (Simulation time: 0 hr 45 min 32 sec) 
Heartbeat CPU 0 instructions: 970000001 cycles: 2981774217 heartbeat IPC: 0.27941 cumulative IPC: 0.295835 (Simulation time: 0 hr 46 min 3 sec) 
Heartbeat CPU 0 instructions: 980000000 cycles: 3016420609 heartbeat IPC: 0.28863 cumulative IPC: 0.295751 (Simulation time: 0 hr 46 min 33 sec) 
Heartbeat CPU 0 instructions: 990000000 cycles: 3051564909 heartbeat IPC: 0.284541 cumulative IPC: 0.29562 (Simulation time: 0 hr 47 min 4 sec) 
Heartbeat CPU 0 instructions: 1000000001 cycles: 3084840169 heartbeat IPC: 0.300524 cumulative IPC: 0.295673 (Simulation time: 0 hr 47 min 32 sec) 
Heartbeat CPU 0 instructions: 1010000001 cycles: 3124866210 heartbeat IPC: 0.249837 cumulative IPC: 0.295079 (Simulation time: 0 hr 48 min 6 sec) 
Heartbeat CPU 0 instructions: 1020000001 cycles: 3174825030 heartbeat IPC: 0.200165 cumulative IPC: 0.293566 (Simulation time: 0 hr 48 min 42 sec) 
Heartbeat CPU 0 instructions: 1030000001 cycles: 3201445154 heartbeat IPC: 0.375656 cumulative IPC: 0.294257 (Simulation time: 0 hr 49 min 12 sec) 
Heartbeat CPU 0 instructions: 1040000001 cycles: 3237331367 heartbeat IPC: 0.278659 cumulative IPC: 0.294082 (Simulation time: 0 hr 49 min 43 sec) 
Heartbeat CPU 0 instructions: 1050000000 cycles: 3272652813 heartbeat IPC: 0.283114 cumulative IPC: 0.293962 (Simulation time: 0 hr 50 min 14 sec) 
Heartbeat CPU 0 instructions: 1060000003 cycles: 3309086115 heartbeat IPC: 0.274474 cumulative IPC: 0.293745 (Simulation time: 0 hr 50 min 45 sec) 
Heartbeat CPU 0 instructions: 1070000000 cycles: 3346818774 heartbeat IPC: 0.265022 cumulative IPC: 0.293417 (Simulation time: 0 hr 51 min 17 sec) 
Heartbeat CPU 0 instructions: 1080000000 cycles: 3383264399 heartbeat IPC: 0.274381 cumulative IPC: 0.293209 (Simulation time: 0 hr 51 min 48 sec) 
Heartbeat CPU 0 instructions: 1090000000 cycles: 3418078239 heartbeat IPC: 0.287242 cumulative IPC: 0.293148 (Simulation time: 0 hr 52 min 18 sec) 
Heartbeat CPU 0 instructions: 1100000000 cycles: 3454559652 heartbeat IPC: 0.274112 cumulative IPC: 0.292944 (Simulation time: 0 hr 52 min 49 sec) 
Finished CPU 0 instructions: 1000000001 cycles: 3413617787 cumulative IPC: 0.292944 (Simulation time: 0 hr 52 min 49 sec) 

ChampSim completed all CPUs

Region of Interest Statistics

CPU 0 cumulative IPC: 0.292944 instructions: 1000000001 cycles: 3413617787
L1D TOTAL     ACCESS:  220616397  HIT:  167446158  MISS:   53170239
L1D LOAD      ACCESS:  167998809  HIT:  122429021  MISS:   45569788
L1D RFO       ACCESS:   52617588  HIT:   45017137  MISS:    7600451
L1D PREFETCH  ACCESS:          0  HIT:          0  MISS:          0
L1D WRITEBACK ACCESS:          0  HIT:          0  MISS:          0
L1D PREFETCH  REQUESTED:          0  ISSUED:          0  USEFUL:          0  USELESS:          0
L1D AVERAGE MISS LATENCY: 144.999 cycles
L1I TOTAL     ACCESS:  184314492  HIT:  184308020  MISS:       6472
L1I LOAD      ACCESS:  184314492  HIT:  184308020  MISS:       6472
L1I RFO       ACCESS:          0  HIT:          0  MISS:          0
L1I PREFETCH  ACCESS:          0  HIT:          0  MISS:          0
L1I WRITEBACK ACCESS:          0  HIT:          0  MISS:          0
L1I PREFETCH  REQUESTED:          0  ISSUED:          0  USEFUL:          0  USELESS:          0
L1I AVERAGE MISS LATENCY: 259.636 cycles
L2C TOTAL     ACCESS:   75503356  HIT:   31697253  MISS:   43806103
L2C LOAD      ACCESS:   45571009  HIT:    8449029  MISS:   37121980
L2C RFO       ACCESS:    7599750  HIT:     917381  MISS:    6682369
L2C PREFETCH  ACCESS:          0  HIT:          0  MISS:          0
L2C WRITEBACK ACCESS:   22332597  HIT:   22330843  MISS:       1754
L2C PREFETCH  REQUESTED:          0  ISSUED:          0  USEFUL:          0  USELESS:          0
L2C AVERAGE MISS LATENCY: 160.448 cycles
LLC TOTAL     ACCESS:   60541900  HIT:   26483105  MISS:   34058795
LLC LOAD      ACCESS:   37121156  HIT:   12827499  MISS:   24293657
LLC RFO       ACCESS:    6682281  HIT:    2667191  MISS:    4015090
LLC PREFETCH  ACCESS:          0  HIT:          0  MISS:          0
LLC WRITEBACK ACCESS:   16738463  HIT:   10988415  MISS:    5750048
LLC PREFETCH  REQUESTED:          0  ISSUED:          0  USEFUL:          0  USELESS:          0
LLC AVERAGE MISS LATENCY: 153.521 cycles
Major fault: 0 Minor fault: 14410
==============================
Perceptron RRIP Stats:
   Num Updates:          1696766
   Num Primary Trains:   71851
   Num Secondary Trains: 74221
==============================
primary_perceptron #0: 3 1 1 -3 1 1 1 -1 -1 -5 7 -1 3 -5 -1 -17 
secondary_perceptron #0: 5 3 -1 -3 -1 -1 3 1 -1 -9 5 -1 5 -7 -1 1 1 -1 3 1 -21 


DRAM Statistics
 CHANNEL 0
 RQ ROW_BUFFER_HIT:    8727665  ROW_BUFFER_MISS:   19578281
 DBUS_CONGESTED:   11419664
 WQ ROW_BUFFER_HIT:    4800557  ROW_BUFFER_MISS:    3958661  FULL:     455565

 AVG_CONGESTED_CYCLE: 6

CPU 0 Branch Prediction Accuracy: 94.4773% MPKI: 9.83563 Average ROB Occupancy at Mispredict: 52.3266

Branch types
NOT_BRANCH: 821905510 82.1906%
BRANCH_DIRECT_JUMP: 1848268 0.184827%
BRANCH_INDIRECT: 279 2.79e-05%
BRANCH_CONDITIONAL: 175056792 17.5057%
BRANCH_DIRECT_CALL: 592763 0.0592763%
BRANCH_INDIRECT_CALL: 1626 0.0001626%
BRANCH_RETURN: 594393 0.0594393%
BRANCH_OTHER: 0 0%

