
*** ChampSim Multicore Out-of-Order Simulator ***

Warmup Instructions: 100000000
Simulation Instructions: 1000000000
Number of CPUs: 1
LLC sets: 2048
LLC ways: 16
Off-chip DRAM Size: 4096 MB Channels: 1 Width: 64-bit Data Rate: 3200 MT/s

CPU 0 runs /scratch/user/kevin.weston/dpc3-traces/462.champsimtrace.xz
CPU 0 Bimodal branch predictor
Initialize DRRIP state
Assign rand_sets[0]: 454  LLC: 2048
rand_sets[0]: 454
Assign rand_sets[1]: 1662  LLC: 2048
rand_sets[1]: 1662
Assign rand_sets[2]: 1921  LLC: 2048
rand_sets[2]: 1921
Assign rand_sets[3]: 1131  LLC: 2048
rand_sets[3]: 1131
Assign rand_sets[4]: 331  LLC: 2048
rand_sets[4]: 331
Assign rand_sets[5]: 1531  LLC: 2048
rand_sets[5]: 1531
Assign rand_sets[6]: 482  LLC: 2048
rand_sets[6]: 482
Assign rand_sets[7]: 1275  LLC: 2048
rand_sets[7]: 1275
Assign rand_sets[8]: 1876  LLC: 2048
rand_sets[8]: 1876
Assign rand_sets[9]: 2038  LLC: 2048
rand_sets[9]: 2038
Assign rand_sets[10]: 701  LLC: 2048
rand_sets[10]: 701
Assign rand_sets[11]: 479  LLC: 2048
rand_sets[11]: 479
Assign rand_sets[12]: 892  LLC: 2048
rand_sets[12]: 892
Assign rand_sets[13]: 1820  LLC: 2048
rand_sets[13]: 1820
Assign rand_sets[14]: 1505  LLC: 2048
rand_sets[14]: 1505
Assign rand_sets[15]: 1159  LLC: 2048
rand_sets[15]: 1159
Assign rand_sets[16]: 513  LLC: 2048
rand_sets[16]: 513
Assign rand_sets[17]: 703  LLC: 2048
rand_sets[17]: 703
Assign rand_sets[18]: 561  LLC: 2048
rand_sets[18]: 561
Assign rand_sets[19]: 990  LLC: 2048
rand_sets[19]: 990
Assign rand_sets[20]: 342  LLC: 2048
rand_sets[20]: 342
Assign rand_sets[21]: 882  LLC: 2048
rand_sets[21]: 882
Assign rand_sets[22]: 15  LLC: 2048
rand_sets[22]: 15
Assign rand_sets[23]: 71  LLC: 2048
rand_sets[23]: 71
Assign rand_sets[24]: 1127  LLC: 2048
rand_sets[24]: 1127
Assign rand_sets[25]: 1382  LLC: 2048
rand_sets[25]: 1382
Assign rand_sets[26]: 647  LLC: 2048
rand_sets[26]: 647
Assign rand_sets[27]: 857  LLC: 2048
rand_sets[27]: 857
Assign rand_sets[28]: 1450  LLC: 2048
rand_sets[28]: 1450
Assign rand_sets[29]: 1160  LLC: 2048
rand_sets[29]: 1160
Assign rand_sets[30]: 1852  LLC: 2048
rand_sets[30]: 1852
Assign rand_sets[31]: 1881  LLC: 2048
rand_sets[31]: 1881
Assign rand_sets[32]: 1770  LLC: 2048
rand_sets[32]: 1770
Assign rand_sets[33]: 1622  LLC: 2048
rand_sets[33]: 1622
Assign rand_sets[34]: 275  LLC: 2048
rand_sets[34]: 275
Assign rand_sets[35]: 635  LLC: 2048
rand_sets[35]: 635
Assign rand_sets[36]: 466  LLC: 2048
rand_sets[36]: 466
Assign rand_sets[37]: 1413  LLC: 2048
rand_sets[37]: 1413
Assign rand_sets[38]: 417  LLC: 2048
rand_sets[38]: 417
Assign rand_sets[39]: 472  LLC: 2048
rand_sets[39]: 472
Assign rand_sets[40]: 1340  LLC: 2048
rand_sets[40]: 1340
Assign rand_sets[41]: 852  LLC: 2048
rand_sets[41]: 852
Assign rand_sets[42]: 1365  LLC: 2048
rand_sets[42]: 1365
Assign rand_sets[43]: 47  LLC: 2048
rand_sets[43]: 47
Assign rand_sets[44]: 823  LLC: 2048
rand_sets[44]: 823
Assign rand_sets[45]: 686  LLC: 2048
rand_sets[45]: 686
Assign rand_sets[46]: 1637  LLC: 2048
rand_sets[46]: 1637
Assign rand_sets[47]: 1115  LLC: 2048
rand_sets[47]: 1115
Assign rand_sets[48]: 986  LLC: 2048
rand_sets[48]: 986
Assign rand_sets[49]: 258  LLC: 2048
rand_sets[49]: 258
Assign rand_sets[50]: 633  LLC: 2048
rand_sets[50]: 633
Assign rand_sets[51]: 920  LLC: 2048
rand_sets[51]: 920
Assign rand_sets[52]: 204  LLC: 2048
rand_sets[52]: 204
Assign rand_sets[53]: 227  LLC: 2048
rand_sets[53]: 227
Assign rand_sets[54]: 1818  LLC: 2048
rand_sets[54]: 1818
Assign rand_sets[55]: 886  LLC: 2048
rand_sets[55]: 886
Assign rand_sets[56]: 1422  LLC: 2048
rand_sets[56]: 1422
Assign rand_sets[57]: 607  LLC: 2048
rand_sets[57]: 607
Assign rand_sets[58]: 217  LLC: 2048
rand_sets[58]: 217
Assign rand_sets[59]: 1945  LLC: 2048
rand_sets[59]: 1945
Assign rand_sets[60]: 143  LLC: 2048
rand_sets[60]: 143
Assign rand_sets[61]: 1311  LLC: 2048
rand_sets[61]: 1311
Assign rand_sets[62]: 319  LLC: 2048
rand_sets[62]: 319
Assign rand_sets[63]: 1846  LLC: 2048
rand_sets[63]: 1846
Heartbeat CPU 0 instructions: 10000001 cycles: 3821111 heartbeat IPC: 2.61704 cumulative IPC: 2.61704 (Simulation time: 0 hr 0 min 12 sec) 
Heartbeat CPU 0 instructions: 20000001 cycles: 8504542 heartbeat IPC: 2.13519 cumulative IPC: 2.35168 (Simulation time: 0 hr 0 min 34 sec) 
Heartbeat CPU 0 instructions: 30000000 cycles: 12442543 heartbeat IPC: 2.53936 cumulative IPC: 2.41108 (Simulation time: 0 hr 0 min 47 sec) 
Heartbeat CPU 0 instructions: 40000000 cycles: 16073747 heartbeat IPC: 2.75391 cumulative IPC: 2.48853 (Simulation time: 0 hr 0 min 57 sec) 
Heartbeat CPU 0 instructions: 50000002 cycles: 19706988 heartbeat IPC: 2.75236 cumulative IPC: 2.53717 (Simulation time: 0 hr 1 min 7 sec) 
Heartbeat CPU 0 instructions: 60000002 cycles: 23343353 heartbeat IPC: 2.75 cumulative IPC: 2.57032 (Simulation time: 0 hr 1 min 16 sec) 
Heartbeat CPU 0 instructions: 70000002 cycles: 27076485 heartbeat IPC: 2.67872 cumulative IPC: 2.58527 (Simulation time: 0 hr 1 min 27 sec) 
Heartbeat CPU 0 instructions: 80000002 cycles: 31772092 heartbeat IPC: 2.12965 cumulative IPC: 2.51793 (Simulation time: 0 hr 1 min 49 sec) 
Heartbeat CPU 0 instructions: 90000000 cycles: 35804202 heartbeat IPC: 2.48009 cumulative IPC: 2.51367 (Simulation time: 0 hr 2 min 4 sec) 
Heartbeat CPU 0 instructions: 100000000 cycles: 39435406 heartbeat IPC: 2.75391 cumulative IPC: 2.53579 (Simulation time: 0 hr 2 min 14 sec) 

Warmup complete CPU 0 instructions: 100000004 cycles: 39435407 (Simulation time: 0 hr 2 min 14 sec) 

Heartbeat CPU 0 instructions: 110000000 cycles: 55551946 heartbeat IPC: 0.620481 cumulative IPC: 0.62048 (Simulation time: 0 hr 2 min 37 sec) 
Heartbeat CPU 0 instructions: 120000000 cycles: 72805872 heartbeat IPC: 0.579578 cumulative IPC: 0.599332 (Simulation time: 0 hr 3 min 0 sec) 
Heartbeat CPU 0 instructions: 130000000 cycles: 89862390 heartbeat IPC: 0.586286 cumulative IPC: 0.59492 (Simulation time: 0 hr 3 min 23 sec) 
Heartbeat CPU 0 instructions: 140000001 cycles: 115240137 heartbeat IPC: 0.394046 cumulative IPC: 0.527672 (Simulation time: 0 hr 3 min 59 sec) 
Heartbeat CPU 0 instructions: 150000002 cycles: 136146013 heartbeat IPC: 0.478334 cumulative IPC: 0.517006 (Simulation time: 0 hr 4 min 28 sec) 
Heartbeat CPU 0 instructions: 160000003 cycles: 152631881 heartbeat IPC: 0.60658 cumulative IPC: 0.530052 (Simulation time: 0 hr 4 min 52 sec) 
Heartbeat CPU 0 instructions: 170000003 cycles: 168943259 heartbeat IPC: 0.613069 cumulative IPC: 0.540508 (Simulation time: 0 hr 5 min 15 sec) 
Heartbeat CPU 0 instructions: 180000003 cycles: 187279455 heartbeat IPC: 0.545369 cumulative IPC: 0.541111 (Simulation time: 0 hr 5 min 38 sec) 
Heartbeat CPU 0 instructions: 190000003 cycles: 205645126 heartbeat IPC: 0.544494 cumulative IPC: 0.541485 (Simulation time: 0 hr 6 min 2 sec) 
Heartbeat CPU 0 instructions: 200000001 cycles: 230182103 heartbeat IPC: 0.407548 cumulative IPC: 0.524255 (Simulation time: 0 hr 6 min 36 sec) 
Heartbeat CPU 0 instructions: 210000001 cycles: 253794403 heartbeat IPC: 0.423508 cumulative IPC: 0.513158 (Simulation time: 0 hr 7 min 6 sec) 
Heartbeat CPU 0 instructions: 220000000 cycles: 274573410 heartbeat IPC: 0.481255 cumulative IPC: 0.510339 (Simulation time: 0 hr 7 min 29 sec) 
Heartbeat CPU 0 instructions: 230000002 cycles: 295502320 heartbeat IPC: 0.477808 cumulative IPC: 0.50768 (Simulation time: 0 hr 7 min 53 sec) 
Heartbeat CPU 0 instructions: 240000002 cycles: 321052973 heartbeat IPC: 0.391379 cumulative IPC: 0.497128 (Simulation time: 0 hr 8 min 28 sec) 
Heartbeat CPU 0 instructions: 250000003 cycles: 342898699 heartbeat IPC: 0.457755 cumulative IPC: 0.494294 (Simulation time: 0 hr 8 min 56 sec) 
Heartbeat CPU 0 instructions: 260000003 cycles: 362401247 heartbeat IPC: 0.512753 cumulative IPC: 0.495408 (Simulation time: 0 hr 9 min 20 sec) 
Heartbeat CPU 0 instructions: 270000001 cycles: 385101080 heartbeat IPC: 0.440532 cumulative IPC: 0.491805 (Simulation time: 0 hr 9 min 43 sec) 
Heartbeat CPU 0 instructions: 280000003 cycles: 417431740 heartbeat IPC: 0.309304 cumulative IPC: 0.476195 (Simulation time: 0 hr 10 min 7 sec) 
Heartbeat CPU 0 instructions: 290000003 cycles: 449875990 heartbeat IPC: 0.308221 cumulative IPC: 0.462917 (Simulation time: 0 hr 10 min 31 sec) 
Heartbeat CPU 0 instructions: 300000000 cycles: 476801895 heartbeat IPC: 0.371389 cumulative IPC: 0.457282 (Simulation time: 0 hr 11 min 4 sec) 
Heartbeat CPU 0 instructions: 310000001 cycles: 502533759 heartbeat IPC: 0.388623 cumulative IPC: 0.453467 (Simulation time: 0 hr 11 min 36 sec) 
Heartbeat CPU 0 instructions: 320000002 cycles: 528387386 heartbeat IPC: 0.386793 cumulative IPC: 0.449942 (Simulation time: 0 hr 11 min 57 sec) 
Heartbeat CPU 0 instructions: 330000000 cycles: 554095980 heartbeat IPC: 0.388975 cumulative IPC: 0.446896 (Simulation time: 0 hr 12 min 19 sec) 
Heartbeat CPU 0 instructions: 340000002 cycles: 590779968 heartbeat IPC: 0.272599 cumulative IPC: 0.435299 (Simulation time: 0 hr 12 min 43 sec) 
Heartbeat CPU 0 instructions: 350000000 cycles: 628902981 heartbeat IPC: 0.262309 cumulative IPC: 0.424112 (Simulation time: 0 hr 13 min 6 sec) 
Heartbeat CPU 0 instructions: 360000000 cycles: 662183640 heartbeat IPC: 0.300475 cumulative IPC: 0.417504 (Simulation time: 0 hr 13 min 35 sec) 
Heartbeat CPU 0 instructions: 370000000 cycles: 687564182 heartbeat IPC: 0.394003 cumulative IPC: 0.416584 (Simulation time: 0 hr 14 min 10 sec) 
Heartbeat CPU 0 instructions: 380000002 cycles: 724799462 heartbeat IPC: 0.268563 cumulative IPC: 0.408542 (Simulation time: 0 hr 14 min 38 sec) 
Heartbeat CPU 0 instructions: 390000001 cycles: 763392521 heartbeat IPC: 0.259114 cumulative IPC: 0.400576 (Simulation time: 0 hr 15 min 4 sec) 
Heartbeat CPU 0 instructions: 400000001 cycles: 793454213 heartbeat IPC: 0.332649 cumulative IPC: 0.397868 (Simulation time: 0 hr 15 min 37 sec) 
Heartbeat CPU 0 instructions: 410000000 cycles: 820255452 heartbeat IPC: 0.373117 cumulative IPC: 0.397018 (Simulation time: 0 hr 16 min 10 sec) 
Heartbeat CPU 0 instructions: 420000001 cycles: 852485498 heartbeat IPC: 0.31027 cumulative IPC: 0.39358 (Simulation time: 0 hr 16 min 32 sec) 
Heartbeat CPU 0 instructions: 430000001 cycles: 884624904 heartbeat IPC: 0.311145 cumulative IPC: 0.390445 (Simulation time: 0 hr 16 min 54 sec) 
Heartbeat CPU 0 instructions: 440000000 cycles: 918659100 heartbeat IPC: 0.293822 cumulative IPC: 0.386705 (Simulation time: 0 hr 17 min 16 sec) 
Heartbeat CPU 0 instructions: 450000001 cycles: 953574816 heartbeat IPC: 0.286404 cumulative IPC: 0.382874 (Simulation time: 0 hr 17 min 37 sec) 
Heartbeat CPU 0 instructions: 460000000 cycles: 987917593 heartbeat IPC: 0.291182 cumulative IPC: 0.379554 (Simulation time: 0 hr 17 min 59 sec) 
Heartbeat CPU 0 instructions: 470000000 cycles: 1021694887 heartbeat IPC: 0.296057 cumulative IPC: 0.376683 (Simulation time: 0 hr 18 min 22 sec) 
Heartbeat CPU 0 instructions: 480000000 cycles: 1051744698 heartbeat IPC: 0.332781 cumulative IPC: 0.375379 (Simulation time: 0 hr 18 min 50 sec) 
Heartbeat CPU 0 instructions: 490000000 cycles: 1077102950 heartbeat IPC: 0.394349 cumulative IPC: 0.375843 (Simulation time: 0 hr 19 min 26 sec) 
Heartbeat CPU 0 instructions: 500000002 cycles: 1115403486 heartbeat IPC: 0.261093 cumulative IPC: 0.371758 (Simulation time: 0 hr 19 min 53 sec) 
Heartbeat CPU 0 instructions: 510000001 cycles: 1153767388 heartbeat IPC: 0.260662 cumulative IPC: 0.367933 (Simulation time: 0 hr 20 min 19 sec) 
Heartbeat CPU 0 instructions: 520000001 cycles: 1182634628 heartbeat IPC: 0.346413 cumulative IPC: 0.36739 (Simulation time: 0 hr 20 min 52 sec) 
Heartbeat CPU 0 instructions: 530000002 cycles: 1209604896 heartbeat IPC: 0.370779 cumulative IPC: 0.367468 (Simulation time: 0 hr 21 min 25 sec) 
Heartbeat CPU 0 instructions: 540000000 cycles: 1239871068 heartbeat IPC: 0.330402 cumulative IPC: 0.366534 (Simulation time: 0 hr 21 min 47 sec) 
Heartbeat CPU 0 instructions: 550000000 cycles: 1270111148 heartbeat IPC: 0.330687 cumulative IPC: 0.365653 (Simulation time: 0 hr 22 min 9 sec) 
Heartbeat CPU 0 instructions: 560000003 cycles: 1295810426 heartbeat IPC: 0.389116 cumulative IPC: 0.366133 (Simulation time: 0 hr 22 min 43 sec) 
Heartbeat CPU 0 instructions: 570000000 cycles: 1322209248 heartbeat IPC: 0.378805 cumulative IPC: 0.366394 (Simulation time: 0 hr 23 min 13 sec) 
Heartbeat CPU 0 instructions: 580000002 cycles: 1349626730 heartbeat IPC: 0.364731 cumulative IPC: 0.366359 (Simulation time: 0 hr 23 min 36 sec) 
Heartbeat CPU 0 instructions: 590000003 cycles: 1376189238 heartbeat IPC: 0.376471 cumulative IPC: 0.36656 (Simulation time: 0 hr 23 min 58 sec) 
Heartbeat CPU 0 instructions: 600000003 cycles: 1396330919 heartbeat IPC: 0.496483 cumulative IPC: 0.368488 (Simulation time: 0 hr 24 min 20 sec) 
Heartbeat CPU 0 instructions: 610000003 cycles: 1416515644 heartbeat IPC: 0.495424 cumulative IPC: 0.370349 (Simulation time: 0 hr 24 min 43 sec) 
Heartbeat CPU 0 instructions: 620000000 cycles: 1440551874 heartbeat IPC: 0.416038 cumulative IPC: 0.371133 (Simulation time: 0 hr 25 min 15 sec) 
Heartbeat CPU 0 instructions: 630000000 cycles: 1465423768 heartbeat IPC: 0.40206 cumulative IPC: 0.371672 (Simulation time: 0 hr 25 min 47 sec) 
Heartbeat CPU 0 instructions: 640000001 cycles: 1488296335 heartbeat IPC: 0.437205 cumulative IPC: 0.372707 (Simulation time: 0 hr 26 min 9 sec) 
Heartbeat CPU 0 instructions: 650000003 cycles: 1511020255 heartbeat IPC: 0.440065 cumulative IPC: 0.373747 (Simulation time: 0 hr 26 min 33 sec) 
Heartbeat CPU 0 instructions: 660000000 cycles: 1536332850 heartbeat IPC: 0.39506 cumulative IPC: 0.374107 (Simulation time: 0 hr 27 min 9 sec) 
Heartbeat CPU 0 instructions: 670000001 cycles: 1558350575 heartbeat IPC: 0.45418 cumulative IPC: 0.375268 (Simulation time: 0 hr 27 min 39 sec) 
Heartbeat CPU 0 instructions: 680000003 cycles: 1576532578 heartbeat IPC: 0.549995 cumulative IPC: 0.377335 (Simulation time: 0 hr 28 min 2 sec) 
Heartbeat CPU 0 instructions: 690000000 cycles: 1595678857 heartbeat IPC: 0.522295 cumulative IPC: 0.379118 (Simulation time: 0 hr 28 min 28 sec) 
Heartbeat CPU 0 instructions: 700000000 cycles: 1621146187 heartbeat IPC: 0.39266 cumulative IPC: 0.379336 (Simulation time: 0 hr 29 min 4 sec) 
Heartbeat CPU 0 instructions: 710000001 cycles: 1640442605 heartbeat IPC: 0.518231 cumulative IPC: 0.38101 (Simulation time: 0 hr 29 min 32 sec) 
Heartbeat CPU 0 instructions: 720000000 cycles: 1656929900 heartbeat IPC: 0.606528 cumulative IPC: 0.383309 (Simulation time: 0 hr 29 min 56 sec) 
Heartbeat CPU 0 instructions: 730000000 cycles: 1672550312 heartbeat IPC: 0.640188 cumulative IPC: 0.385766 (Simulation time: 0 hr 30 min 20 sec) 
Heartbeat CPU 0 instructions: 740000002 cycles: 1688400580 heartbeat IPC: 0.630904 cumulative IPC: 0.388122 (Simulation time: 0 hr 30 min 44 sec) 
Heartbeat CPU 0 instructions: 750000001 cycles: 1704746348 heartbeat IPC: 0.611779 cumulative IPC: 0.390317 (Simulation time: 0 hr 31 min 8 sec) 
Heartbeat CPU 0 instructions: 760000001 cycles: 1730276323 heartbeat IPC: 0.391696 cumulative IPC: 0.390338 (Simulation time: 0 hr 31 min 45 sec) 
Heartbeat CPU 0 instructions: 770000000 cycles: 1751015899 heartbeat IPC: 0.48217 cumulative IPC: 0.391451 (Simulation time: 0 hr 32 min 16 sec) 
Heartbeat CPU 0 instructions: 780000002 cycles: 1768364588 heartbeat IPC: 0.576413 cumulative IPC: 0.393307 (Simulation time: 0 hr 32 min 43 sec) 
Heartbeat CPU 0 instructions: 790000003 cycles: 1787018835 heartbeat IPC: 0.536071 cumulative IPC: 0.394831 (Simulation time: 0 hr 33 min 12 sec) 
Heartbeat CPU 0 instructions: 800000003 cycles: 1812240538 heartbeat IPC: 0.396484 cumulative IPC: 0.394854 (Simulation time: 0 hr 33 min 48 sec) 
Heartbeat CPU 0 instructions: 810000000 cycles: 1830217352 heartbeat IPC: 0.556272 cumulative IPC: 0.396475 (Simulation time: 0 hr 34 min 14 sec) 
Heartbeat CPU 0 instructions: 820000000 cycles: 1846709463 heartbeat IPC: 0.606351 cumulative IPC: 0.39839 (Simulation time: 0 hr 34 min 38 sec) 
Heartbeat CPU 0 instructions: 830000000 cycles: 1862247174 heartbeat IPC: 0.643595 cumulative IPC: 0.40048 (Simulation time: 0 hr 35 min 2 sec) 
Heartbeat CPU 0 instructions: 840000001 cycles: 1878109583 heartbeat IPC: 0.630421 cumulative IPC: 0.402464 (Simulation time: 0 hr 35 min 26 sec) 
Heartbeat CPU 0 instructions: 850000000 cycles: 1895855500 heartbeat IPC: 0.56351 cumulative IPC: 0.404003 (Simulation time: 0 hr 35 min 52 sec) 
Heartbeat CPU 0 instructions: 860000000 cycles: 1921288767 heartbeat IPC: 0.393186 cumulative IPC: 0.403857 (Simulation time: 0 hr 36 min 29 sec) 
Heartbeat CPU 0 instructions: 870000001 cycles: 1940543771 heartbeat IPC: 0.519346 cumulative IPC: 0.405027 (Simulation time: 0 hr 36 min 58 sec) 
Heartbeat CPU 0 instructions: 880000000 cycles: 1957689212 heartbeat IPC: 0.583245 cumulative IPC: 0.40662 (Simulation time: 0 hr 37 min 25 sec) 
Heartbeat CPU 0 instructions: 890000002 cycles: 1973361623 heartbeat IPC: 0.638064 cumulative IPC: 0.408495 (Simulation time: 0 hr 37 min 50 sec) 
Heartbeat CPU 0 instructions: 900000000 cycles: 1989203351 heartbeat IPC: 0.631244 cumulative IPC: 0.410305 (Simulation time: 0 hr 38 min 13 sec) 
Heartbeat CPU 0 instructions: 910000001 cycles: 2006088921 heartbeat IPC: 0.592222 cumulative IPC: 0.411867 (Simulation time: 0 hr 38 min 39 sec) 
Heartbeat CPU 0 instructions: 920000001 cycles: 2031546910 heartbeat IPC: 0.392804 cumulative IPC: 0.411624 (Simulation time: 0 hr 39 min 15 sec) 
Heartbeat CPU 0 instructions: 930000000 cycles: 2051578722 heartbeat IPC: 0.499206 cumulative IPC: 0.412495 (Simulation time: 0 hr 39 min 46 sec) 
Heartbeat CPU 0 instructions: 940000002 cycles: 2068848769 heartbeat IPC: 0.579037 cumulative IPC: 0.413913 (Simulation time: 0 hr 40 min 13 sec) 
Heartbeat CPU 0 instructions: 950000003 cycles: 2088210131 heartbeat IPC: 0.516493 cumulative IPC: 0.414882 (Simulation time: 0 hr 40 min 43 sec) 
Heartbeat CPU 0 instructions: 960000003 cycles: 2113426969 heartbeat IPC: 0.39656 cumulative IPC: 0.414659 (Simulation time: 0 hr 41 min 19 sec) 
Heartbeat CPU 0 instructions: 970000002 cycles: 2131575478 heartbeat IPC: 0.551009 cumulative IPC: 0.415842 (Simulation time: 0 hr 41 min 47 sec) 
Heartbeat CPU 0 instructions: 980000002 cycles: 2148642624 heartbeat IPC: 0.585921 cumulative IPC: 0.417218 (Simulation time: 0 hr 42 min 14 sec) 
Heartbeat CPU 0 instructions: 990000000 cycles: 2174665168 heartbeat IPC: 0.384282 cumulative IPC: 0.416817 (Simulation time: 0 hr 42 min 37 sec) 
Heartbeat CPU 0 instructions: 1000000002 cycles: 2209086137 heartbeat IPC: 0.290521 cumulative IPC: 0.414813 (Simulation time: 0 hr 42 min 59 sec) 
Heartbeat CPU 0 instructions: 1010000001 cycles: 2239780503 heartbeat IPC: 0.325793 cumulative IPC: 0.413571 (Simulation time: 0 hr 43 min 22 sec) 
Heartbeat CPU 0 instructions: 1020000001 cycles: 2255733994 heartbeat IPC: 0.626822 cumulative IPC: 0.415107 (Simulation time: 0 hr 43 min 48 sec) 
Heartbeat CPU 0 instructions: 1030000001 cycles: 2271927817 heartbeat IPC: 0.617519 cumulative IPC: 0.416575 (Simulation time: 0 hr 44 min 14 sec) 
Heartbeat CPU 0 instructions: 1040000002 cycles: 2295916238 heartbeat IPC: 0.416868 cumulative IPC: 0.416578 (Simulation time: 0 hr 44 min 49 sec) 
Heartbeat CPU 0 instructions: 1050000002 cycles: 2317236525 heartbeat IPC: 0.469037 cumulative IPC: 0.417069 (Simulation time: 0 hr 45 min 20 sec) 
Heartbeat CPU 0 instructions: 1060000002 cycles: 2332653178 heartbeat IPC: 0.648649 cumulative IPC: 0.418626 (Simulation time: 0 hr 45 min 45 sec) 
Heartbeat CPU 0 instructions: 1070000003 cycles: 2348642407 heartbeat IPC: 0.625421 cumulative IPC: 0.420058 (Simulation time: 0 hr 46 min 11 sec) 
Heartbeat CPU 0 instructions: 1080000003 cycles: 2373931190 heartbeat IPC: 0.395432 cumulative IPC: 0.419791 (Simulation time: 0 hr 46 min 47 sec) 
Heartbeat CPU 0 instructions: 1090000002 cycles: 2393544625 heartbeat IPC: 0.509855 cumulative IPC: 0.420541 (Simulation time: 0 hr 47 min 15 sec) 
Heartbeat CPU 0 instructions: 1100000000 cycles: 2410014851 heartbeat IPC: 0.607156 cumulative IPC: 0.421838 (Simulation time: 0 hr 47 min 39 sec) 
Finished CPU 0 instructions: 1000000002 cycles: 2370579461 cumulative IPC: 0.421838 (Simulation time: 0 hr 47 min 39 sec) 

ChampSim completed all CPUs

Region of Interest Statistics

CPU 0 cumulative IPC: 0.421838 instructions: 1000000002 cycles: 2370579461
L1D TOTAL     ACCESS:  143209449  HIT:  116985412  MISS:   26224037
L1D LOAD      ACCESS:   94302211  HIT:   68078360  MISS:   26223851
L1D RFO       ACCESS:   48907238  HIT:   48907052  MISS:        186
L1D PREFETCH  ACCESS:          0  HIT:          0  MISS:          0
L1D WRITEBACK ACCESS:          0  HIT:          0  MISS:          0
L1D PREFETCH  REQUESTED:          0  ISSUED:          0  USEFUL:          0  USELESS:          0
L1D AVERAGE MISS LATENCY: 198.158 cycles
L1I TOTAL     ACCESS:  220854545  HIT:  220854529  MISS:         16
L1I LOAD      ACCESS:  220854545  HIT:  220854529  MISS:         16
L1I RFO       ACCESS:          0  HIT:          0  MISS:          0
L1I PREFETCH  ACCESS:          0  HIT:          0  MISS:          0
L1I WRITEBACK ACCESS:          0  HIT:          0  MISS:          0
L1I PREFETCH  REQUESTED:          0  ISSUED:          0  USEFUL:          0  USELESS:          0
L1I AVERAGE MISS LATENCY: 237.188 cycles
L2C TOTAL     ACCESS:   40036375  HIT:   13812322  MISS:   26224053
L2C LOAD      ACCESS:   26223867  HIT:          0  MISS:   26223867
L2C RFO       ACCESS:        186  HIT:          0  MISS:        186
L2C PREFETCH  ACCESS:          0  HIT:          0  MISS:          0
L2C WRITEBACK ACCESS:   13812322  HIT:   13812322  MISS:          0
L2C PREFETCH  REQUESTED:          0  ISSUED:          0  USEFUL:          0  USELESS:          0
L2C AVERAGE MISS LATENCY: 185.729 cycles
LLC TOTAL     ACCESS:   40036375  HIT:    1089529  MISS:   38946846
LLC LOAD      ACCESS:   26223867  HIT:     436765  MISS:   25787102
LLC RFO       ACCESS:        186  HIT:         59  MISS:        127
LLC PREFETCH  ACCESS:          0  HIT:          0  MISS:          0
LLC WRITEBACK ACCESS:   13812322  HIT:     652705  MISS:   13159617
LLC PREFETCH  REQUESTED:          0  ISSUED:          0  USEFUL:          0  USELESS:          0
LLC AVERAGE MISS LATENCY: 97.85 cycles
Major fault: 0 Minor fault: 8200

DRAM Statistics
 CHANNEL 0
 RQ ROW_BUFFER_HIT:   11331832  ROW_BUFFER_MISS:   14455397
 DBUS_CONGESTED:   14410011
 WQ ROW_BUFFER_HIT:   11448880  ROW_BUFFER_MISS:    2363850  FULL:          0

 AVG_CONGESTED_CYCLE: 6

CPU 0 Branch Prediction Accuracy: 97.2039% MPKI: 4.75176 Average ROB Occupancy at Mispredict: 42.1931

Branch types
NOT_BRANCH: 830056091 83.0056%
BRANCH_DIRECT_JUMP: 4 4e-07%
BRANCH_INDIRECT: 50 5e-06%
BRANCH_CONDITIONAL: 169943693 16.9944%
BRANCH_DIRECT_CALL: 252 2.52e-05%
BRANCH_INDIRECT_CALL: 0 0%
BRANCH_RETURN: 250 2.5e-05%
BRANCH_OTHER: 0 0%

