
*** ChampSim Multicore Out-of-Order Simulator ***

Warmup Instructions: 100000000
Simulation Instructions: 1000000000
Number of CPUs: 1
LLC sets: 2048
LLC ways: 16
Off-chip DRAM Size: 4096 MB Channels: 1 Width: 64-bit Data Rate: 3200 MT/s

CPU 0 runs /scratch/user/kevin.weston/dpc3-traces/462.champsimtrace.xz
CPU 0 Bimodal branch predictor
Initialize SHIP state
Assign rand_sets[0]: 454  LLC: 2048
rand_sets[0]: 454
Assign rand_sets[1]: 1662  LLC: 2048
rand_sets[1]: 1662
Assign rand_sets[2]: 1921  LLC: 2048
rand_sets[2]: 1921
Assign rand_sets[3]: 1131  LLC: 2048
rand_sets[3]: 1131
Assign rand_sets[4]: 331  LLC: 2048
rand_sets[4]: 331
Assign rand_sets[5]: 1531  LLC: 2048
rand_sets[5]: 1531
Assign rand_sets[6]: 482  LLC: 2048
rand_sets[6]: 482
Assign rand_sets[7]: 1275  LLC: 2048
rand_sets[7]: 1275
Assign rand_sets[8]: 1876  LLC: 2048
rand_sets[8]: 1876
Assign rand_sets[9]: 2038  LLC: 2048
rand_sets[9]: 2038
Assign rand_sets[10]: 701  LLC: 2048
rand_sets[10]: 701
Assign rand_sets[11]: 479  LLC: 2048
rand_sets[11]: 479
Assign rand_sets[12]: 892  LLC: 2048
rand_sets[12]: 892
Assign rand_sets[13]: 1820  LLC: 2048
rand_sets[13]: 1820
Assign rand_sets[14]: 1505  LLC: 2048
rand_sets[14]: 1505
Assign rand_sets[15]: 1159  LLC: 2048
rand_sets[15]: 1159
Assign rand_sets[16]: 513  LLC: 2048
rand_sets[16]: 513
Assign rand_sets[17]: 703  LLC: 2048
rand_sets[17]: 703
Assign rand_sets[18]: 561  LLC: 2048
rand_sets[18]: 561
Assign rand_sets[19]: 990  LLC: 2048
rand_sets[19]: 990
Assign rand_sets[20]: 342  LLC: 2048
rand_sets[20]: 342
Assign rand_sets[21]: 882  LLC: 2048
rand_sets[21]: 882
Assign rand_sets[22]: 15  LLC: 2048
rand_sets[22]: 15
Assign rand_sets[23]: 71  LLC: 2048
rand_sets[23]: 71
Assign rand_sets[24]: 1127  LLC: 2048
rand_sets[24]: 1127
Assign rand_sets[25]: 1382  LLC: 2048
rand_sets[25]: 1382
Assign rand_sets[26]: 647  LLC: 2048
rand_sets[26]: 647
Assign rand_sets[27]: 857  LLC: 2048
rand_sets[27]: 857
Assign rand_sets[28]: 1450  LLC: 2048
rand_sets[28]: 1450
Assign rand_sets[29]: 1160  LLC: 2048
rand_sets[29]: 1160
Assign rand_sets[30]: 1852  LLC: 2048
rand_sets[30]: 1852
Assign rand_sets[31]: 1881  LLC: 2048
rand_sets[31]: 1881
Assign rand_sets[32]: 1770  LLC: 2048
rand_sets[32]: 1770
Assign rand_sets[33]: 1622  LLC: 2048
rand_sets[33]: 1622
Assign rand_sets[34]: 275  LLC: 2048
rand_sets[34]: 275
Assign rand_sets[35]: 635  LLC: 2048
rand_sets[35]: 635
Assign rand_sets[36]: 466  LLC: 2048
rand_sets[36]: 466
Assign rand_sets[37]: 1413  LLC: 2048
rand_sets[37]: 1413
Assign rand_sets[38]: 417  LLC: 2048
rand_sets[38]: 417
Assign rand_sets[39]: 472  LLC: 2048
rand_sets[39]: 472
Assign rand_sets[40]: 1340  LLC: 2048
rand_sets[40]: 1340
Assign rand_sets[41]: 852  LLC: 2048
rand_sets[41]: 852
Assign rand_sets[42]: 1365  LLC: 2048
rand_sets[42]: 1365
Assign rand_sets[43]: 47  LLC: 2048
rand_sets[43]: 47
Assign rand_sets[44]: 823  LLC: 2048
rand_sets[44]: 823
Assign rand_sets[45]: 686  LLC: 2048
rand_sets[45]: 686
Assign rand_sets[46]: 1637  LLC: 2048
rand_sets[46]: 1637
Assign rand_sets[47]: 1115  LLC: 2048
rand_sets[47]: 1115
Assign rand_sets[48]: 986  LLC: 2048
rand_sets[48]: 986
Assign rand_sets[49]: 258  LLC: 2048
rand_sets[49]: 258
Assign rand_sets[50]: 633  LLC: 2048
rand_sets[50]: 633
Assign rand_sets[51]: 920  LLC: 2048
rand_sets[51]: 920
Assign rand_sets[52]: 204  LLC: 2048
rand_sets[52]: 204
Assign rand_sets[53]: 227  LLC: 2048
rand_sets[53]: 227
Assign rand_sets[54]: 1818  LLC: 2048
rand_sets[54]: 1818
Assign rand_sets[55]: 886  LLC: 2048
rand_sets[55]: 886
Assign rand_sets[56]: 1422  LLC: 2048
rand_sets[56]: 1422
Assign rand_sets[57]: 607  LLC: 2048
rand_sets[57]: 607
Assign rand_sets[58]: 217  LLC: 2048
rand_sets[58]: 217
Assign rand_sets[59]: 1945  LLC: 2048
rand_sets[59]: 1945
Assign rand_sets[60]: 143  LLC: 2048
rand_sets[60]: 143
Assign rand_sets[61]: 1311  LLC: 2048
rand_sets[61]: 1311
Assign rand_sets[62]: 319  LLC: 2048
rand_sets[62]: 319
Assign rand_sets[63]: 1846  LLC: 2048
rand_sets[63]: 1846
Assign rand_sets[64]: 238  LLC: 2048
rand_sets[64]: 238
Assign rand_sets[65]: 67  LLC: 2048
rand_sets[65]: 67
Assign rand_sets[66]: 1912  LLC: 2048
rand_sets[66]: 1912
Assign rand_sets[67]: 1613  LLC: 2048
rand_sets[67]: 1613
Assign rand_sets[68]: 1293  LLC: 2048
rand_sets[68]: 1293
Assign rand_sets[69]: 1018  LLC: 2048
rand_sets[69]: 1018
Assign rand_sets[70]: 1982  LLC: 2048
rand_sets[70]: 1982
Assign rand_sets[71]: 1702  LLC: 2048
rand_sets[71]: 1702
Assign rand_sets[72]: 1498  LLC: 2048
rand_sets[72]: 1498
Assign rand_sets[73]: 228  LLC: 2048
rand_sets[73]: 228
Assign rand_sets[74]: 1414  LLC: 2048
rand_sets[74]: 1414
Assign rand_sets[75]: 1166  LLC: 2048
rand_sets[75]: 1166
Assign rand_sets[76]: 732  LLC: 2048
rand_sets[76]: 732
Assign rand_sets[77]: 297  LLC: 2048
rand_sets[77]: 297
Assign rand_sets[78]: 1133  LLC: 2048
rand_sets[78]: 1133
Assign rand_sets[79]: 846  LLC: 2048
rand_sets[79]: 846
Assign rand_sets[80]: 767  LLC: 2048
rand_sets[80]: 767
Assign rand_sets[81]: 1878  LLC: 2048
rand_sets[81]: 1878
Assign rand_sets[82]: 993  LLC: 2048
rand_sets[82]: 993
Assign rand_sets[83]: 1392  LLC: 2048
rand_sets[83]: 1392
Assign rand_sets[84]: 1568  LLC: 2048
rand_sets[84]: 1568
Assign rand_sets[85]: 1787  LLC: 2048
rand_sets[85]: 1787
Assign rand_sets[86]: 399  LLC: 2048
rand_sets[86]: 399
Assign rand_sets[87]: 1201  LLC: 2048
rand_sets[87]: 1201
Assign rand_sets[88]: 856  LLC: 2048
rand_sets[88]: 856
Assign rand_sets[89]: 773  LLC: 2048
rand_sets[89]: 773
Assign rand_sets[90]: 1680  LLC: 2048
rand_sets[90]: 1680
Assign rand_sets[91]: 1477  LLC: 2048
rand_sets[91]: 1477
Assign rand_sets[92]: 9  LLC: 2048
rand_sets[92]: 9
Assign rand_sets[93]: 1500  LLC: 2048
rand_sets[93]: 1500
Assign rand_sets[94]: 851  LLC: 2048
rand_sets[94]: 851
Assign rand_sets[95]: 973  LLC: 2048
rand_sets[95]: 973
Assign rand_sets[96]: 938  LLC: 2048
rand_sets[96]: 938
Assign rand_sets[97]: 1851  LLC: 2048
rand_sets[97]: 1851
Assign rand_sets[98]: 1608  LLC: 2048
rand_sets[98]: 1608
Assign rand_sets[99]: 1945  LLC: 2048
Assign rand_sets[99]: 1106  LLC: 2048
rand_sets[99]: 1106
Assign rand_sets[100]: 979  LLC: 2048
rand_sets[100]: 979
Assign rand_sets[101]: 338  LLC: 2048
rand_sets[101]: 338
Assign rand_sets[102]: 1693  LLC: 2048
rand_sets[102]: 1693
Assign rand_sets[103]: 6  LLC: 2048
rand_sets[103]: 6
Assign rand_sets[104]: 671  LLC: 2048
rand_sets[104]: 671
Assign rand_sets[105]: 490  LLC: 2048
rand_sets[105]: 490
Assign rand_sets[106]: 1461  LLC: 2048
rand_sets[106]: 1461
Assign rand_sets[107]: 1730  LLC: 2048
rand_sets[107]: 1730
Assign rand_sets[108]: 1030  LLC: 2048
rand_sets[108]: 1030
Assign rand_sets[109]: 19  LLC: 2048
rand_sets[109]: 19
Assign rand_sets[110]: 920  LLC: 2048
Assign rand_sets[110]: 329  LLC: 2048
rand_sets[110]: 329
Assign rand_sets[111]: 1714  LLC: 2048
rand_sets[111]: 1714
Assign rand_sets[112]: 1  LLC: 2048
rand_sets[112]: 1
Assign rand_sets[113]: 1822  LLC: 2048
rand_sets[113]: 1822
Assign rand_sets[114]: 172  LLC: 2048
rand_sets[114]: 172
Assign rand_sets[115]: 1586  LLC: 2048
rand_sets[115]: 1586
Assign rand_sets[116]: 648  LLC: 2048
rand_sets[116]: 648
Assign rand_sets[117]: 1329  LLC: 2048
rand_sets[117]: 1329
Assign rand_sets[118]: 668  LLC: 2048
rand_sets[118]: 668
Assign rand_sets[119]: 1874  LLC: 2048
rand_sets[119]: 1874
Assign rand_sets[120]: 70  LLC: 2048
rand_sets[120]: 70
Assign rand_sets[121]: 661  LLC: 2048
rand_sets[121]: 661
Assign rand_sets[122]: 1649  LLC: 2048
rand_sets[122]: 1649
Assign rand_sets[123]: 1590  LLC: 2048
rand_sets[123]: 1590
Assign rand_sets[124]: 911  LLC: 2048
rand_sets[124]: 911
Assign rand_sets[125]: 1367  LLC: 2048
rand_sets[125]: 1367
Assign rand_sets[126]: 1782  LLC: 2048
rand_sets[126]: 1782
Assign rand_sets[127]: 569  LLC: 2048
rand_sets[127]: 569
Heartbeat CPU 0 instructions: 10000001 cycles: 3821111 heartbeat IPC: 2.61704 cumulative IPC: 2.61704 (Simulation time: 0 hr 0 min 11 sec) 
Heartbeat CPU 0 instructions: 20000001 cycles: 8504542 heartbeat IPC: 2.13519 cumulative IPC: 2.35168 (Simulation time: 0 hr 0 min 33 sec) 
Heartbeat CPU 0 instructions: 30000000 cycles: 12442543 heartbeat IPC: 2.53936 cumulative IPC: 2.41108 (Simulation time: 0 hr 0 min 46 sec) 
Heartbeat CPU 0 instructions: 40000000 cycles: 16073747 heartbeat IPC: 2.75391 cumulative IPC: 2.48853 (Simulation time: 0 hr 0 min 56 sec) 
Heartbeat CPU 0 instructions: 50000002 cycles: 19706988 heartbeat IPC: 2.75236 cumulative IPC: 2.53717 (Simulation time: 0 hr 1 min 5 sec) 
Heartbeat CPU 0 instructions: 60000002 cycles: 23343353 heartbeat IPC: 2.75 cumulative IPC: 2.57032 (Simulation time: 0 hr 1 min 15 sec) 
Heartbeat CPU 0 instructions: 70000002 cycles: 27076483 heartbeat IPC: 2.67872 cumulative IPC: 2.58527 (Simulation time: 0 hr 1 min 25 sec) 
Heartbeat CPU 0 instructions: 80000002 cycles: 31772090 heartbeat IPC: 2.12965 cumulative IPC: 2.51793 (Simulation time: 0 hr 1 min 47 sec) 
Heartbeat CPU 0 instructions: 90000000 cycles: 35804200 heartbeat IPC: 2.48009 cumulative IPC: 2.51367 (Simulation time: 0 hr 2 min 1 sec) 
Heartbeat CPU 0 instructions: 100000000 cycles: 39435404 heartbeat IPC: 2.75391 cumulative IPC: 2.53579 (Simulation time: 0 hr 2 min 10 sec) 

Warmup complete CPU 0 instructions: 100000004 cycles: 39435405 (Simulation time: 0 hr 2 min 10 sec) 

Heartbeat CPU 0 instructions: 110000000 cycles: 54790968 heartbeat IPC: 0.65123 cumulative IPC: 0.65123 (Simulation time: 0 hr 2 min 33 sec) 
Heartbeat CPU 0 instructions: 120000000 cycles: 71927004 heartbeat IPC: 0.583566 cumulative IPC: 0.615544 (Simulation time: 0 hr 2 min 57 sec) 
Heartbeat CPU 0 instructions: 130000000 cycles: 88333627 heartbeat IPC: 0.60951 cumulative IPC: 0.613519 (Simulation time: 0 hr 3 min 20 sec) 
Heartbeat CPU 0 instructions: 140000001 cycles: 113252783 heartbeat IPC: 0.401298 cumulative IPC: 0.541878 (Simulation time: 0 hr 3 min 56 sec) 
Heartbeat CPU 0 instructions: 150000002 cycles: 133524471 heartbeat IPC: 0.493299 cumulative IPC: 0.531411 (Simulation time: 0 hr 4 min 25 sec) 
Heartbeat CPU 0 instructions: 160000003 cycles: 149225882 heartbeat IPC: 0.636886 cumulative IPC: 0.546495 (Simulation time: 0 hr 4 min 49 sec) 
Heartbeat CPU 0 instructions: 170000003 cycles: 164682089 heartbeat IPC: 0.646989 cumulative IPC: 0.558897 (Simulation time: 0 hr 5 min 12 sec) 
Heartbeat CPU 0 instructions: 180000003 cycles: 182930038 heartbeat IPC: 0.548007 cumulative IPC: 0.557512 (Simulation time: 0 hr 5 min 35 sec) 
Heartbeat CPU 0 instructions: 190000003 cycles: 200965410 heartbeat IPC: 0.554466 cumulative IPC: 0.557172 (Simulation time: 0 hr 5 min 59 sec) 
Heartbeat CPU 0 instructions: 200000001 cycles: 224823730 heartbeat IPC: 0.419141 cumulative IPC: 0.539408 (Simulation time: 0 hr 6 min 33 sec) 
Heartbeat CPU 0 instructions: 210000001 cycles: 247979178 heartbeat IPC: 0.431864 cumulative IPC: 0.527467 (Simulation time: 0 hr 7 min 4 sec) 
Heartbeat CPU 0 instructions: 220000000 cycles: 268277030 heartbeat IPC: 0.492663 cumulative IPC: 0.52438 (Simulation time: 0 hr 7 min 27 sec) 
Heartbeat CPU 0 instructions: 230000002 cycles: 288592706 heartbeat IPC: 0.492231 cumulative IPC: 0.521759 (Simulation time: 0 hr 7 min 51 sec) 
Heartbeat CPU 0 instructions: 240000002 cycles: 313695974 heartbeat IPC: 0.398355 cumulative IPC: 0.510463 (Simulation time: 0 hr 8 min 27 sec) 
Heartbeat CPU 0 instructions: 250000003 cycles: 334997379 heartbeat IPC: 0.469453 cumulative IPC: 0.507508 (Simulation time: 0 hr 8 min 55 sec) 
Heartbeat CPU 0 instructions: 260000003 cycles: 353893142 heartbeat IPC: 0.529219 cumulative IPC: 0.508812 (Simulation time: 0 hr 9 min 19 sec) 
Heartbeat CPU 0 instructions: 270000001 cycles: 376282494 heartbeat IPC: 0.446641 cumulative IPC: 0.50468 (Simulation time: 0 hr 9 min 41 sec) 
Heartbeat CPU 0 instructions: 280000001 cycles: 408730305 heartbeat IPC: 0.308187 cumulative IPC: 0.487415 (Simulation time: 0 hr 10 min 6 sec) 
Heartbeat CPU 0 instructions: 290000003 cycles: 441270189 heartbeat IPC: 0.307315 cumulative IPC: 0.472831 (Simulation time: 0 hr 10 min 31 sec) 
Heartbeat CPU 0 instructions: 300000000 cycles: 467712820 heartbeat IPC: 0.378177 cumulative IPC: 0.466987 (Simulation time: 0 hr 11 min 4 sec) 
Heartbeat CPU 0 instructions: 310000001 cycles: 493016288 heartbeat IPC: 0.395203 cumulative IPC: 0.462982 (Simulation time: 0 hr 11 min 36 sec) 
Heartbeat CPU 0 instructions: 320000002 cycles: 518583234 heartbeat IPC: 0.39113 cumulative IPC: 0.459148 (Simulation time: 0 hr 11 min 58 sec) 
Heartbeat CPU 0 instructions: 330000000 cycles: 543863472 heartbeat IPC: 0.395566 cumulative IPC: 0.455962 (Simulation time: 0 hr 12 min 20 sec) 
Heartbeat CPU 0 instructions: 340000002 cycles: 581128556 heartbeat IPC: 0.268348 cumulative IPC: 0.443055 (Simulation time: 0 hr 12 min 44 sec) 
Heartbeat CPU 0 instructions: 350000000 cycles: 619443837 heartbeat IPC: 0.260992 cumulative IPC: 0.431028 (Simulation time: 0 hr 13 min 8 sec) 
Heartbeat CPU 0 instructions: 360000000 cycles: 652722274 heartbeat IPC: 0.300495 cumulative IPC: 0.423945 (Simulation time: 0 hr 13 min 37 sec) 
Heartbeat CPU 0 instructions: 370000000 cycles: 677706554 heartbeat IPC: 0.400252 cumulative IPC: 0.423018 (Simulation time: 0 hr 14 min 13 sec) 
Heartbeat CPU 0 instructions: 380000002 cycles: 714827073 heartbeat IPC: 0.269393 cumulative IPC: 0.414574 (Simulation time: 0 hr 14 min 42 sec) 
Heartbeat CPU 0 instructions: 390000001 cycles: 753618399 heartbeat IPC: 0.25779 cumulative IPC: 0.406058 (Simulation time: 0 hr 15 min 9 sec) 
Heartbeat CPU 0 instructions: 400000001 cycles: 783450668 heartbeat IPC: 0.335207 cumulative IPC: 0.403218 (Simulation time: 0 hr 15 min 42 sec) 
Heartbeat CPU 0 instructions: 410000000 cycles: 809788360 heartbeat IPC: 0.379684 cumulative IPC: 0.402413 (Simulation time: 0 hr 16 min 17 sec) 
Heartbeat CPU 0 instructions: 420000001 cycles: 841672504 heartbeat IPC: 0.313636 cumulative IPC: 0.398885 (Simulation time: 0 hr 16 min 39 sec) 
Heartbeat CPU 0 instructions: 430000001 cycles: 873568978 heartbeat IPC: 0.313514 cumulative IPC: 0.39562 (Simulation time: 0 hr 17 min 1 sec) 
Heartbeat CPU 0 instructions: 440000000 cycles: 907669368 heartbeat IPC: 0.293252 cumulative IPC: 0.3916 (Simulation time: 0 hr 17 min 23 sec) 
Heartbeat CPU 0 instructions: 450000001 cycles: 942610381 heartbeat IPC: 0.286197 cumulative IPC: 0.387522 (Simulation time: 0 hr 17 min 45 sec) 
Heartbeat CPU 0 instructions: 460000000 cycles: 977015950 heartbeat IPC: 0.290651 cumulative IPC: 0.383967 (Simulation time: 0 hr 18 min 7 sec) 
Heartbeat CPU 0 instructions: 470000000 cycles: 1010785441 heartbeat IPC: 0.296125 cumulative IPC: 0.380913 (Simulation time: 0 hr 18 min 30 sec) 
Heartbeat CPU 0 instructions: 480000000 cycles: 1040660096 heartbeat IPC: 0.334732 cumulative IPC: 0.379535 (Simulation time: 0 hr 18 min 58 sec) 
Heartbeat CPU 0 instructions: 490000000 cycles: 1065596453 heartbeat IPC: 0.401021 cumulative IPC: 0.380057 (Simulation time: 0 hr 19 min 35 sec) 
Heartbeat CPU 0 instructions: 500000002 cycles: 1103818534 heartbeat IPC: 0.261629 cumulative IPC: 0.375805 (Simulation time: 0 hr 20 min 2 sec) 
Heartbeat CPU 0 instructions: 510000001 cycles: 1142541097 heartbeat IPC: 0.258247 cumulative IPC: 0.371678 (Simulation time: 0 hr 20 min 30 sec) 
Heartbeat CPU 0 instructions: 520000001 cycles: 1171084559 heartbeat IPC: 0.350343 cumulative IPC: 0.37114 (Simulation time: 0 hr 21 min 4 sec) 
Heartbeat CPU 0 instructions: 530000002 cycles: 1197566155 heartbeat IPC: 0.377621 cumulative IPC: 0.371288 (Simulation time: 0 hr 21 min 37 sec) 
Heartbeat CPU 0 instructions: 540000000 cycles: 1227548919 heartbeat IPC: 0.333525 cumulative IPC: 0.370335 (Simulation time: 0 hr 21 min 59 sec) 
Heartbeat CPU 0 instructions: 550000000 cycles: 1257500644 heartbeat IPC: 0.333871 cumulative IPC: 0.369438 (Simulation time: 0 hr 22 min 22 sec) 
Heartbeat CPU 0 instructions: 560000003 cycles: 1282825780 heartbeat IPC: 0.394865 cumulative IPC: 0.369956 (Simulation time: 0 hr 22 min 56 sec) 
Heartbeat CPU 0 instructions: 570000000 cycles: 1308841970 heartbeat IPC: 0.384376 cumulative IPC: 0.370252 (Simulation time: 0 hr 23 min 27 sec) 
Heartbeat CPU 0 instructions: 580000002 cycles: 1335904458 heartbeat IPC: 0.369515 cumulative IPC: 0.370236 (Simulation time: 0 hr 23 min 50 sec) 
Heartbeat CPU 0 instructions: 590000003 cycles: 1362235611 heartbeat IPC: 0.379778 cumulative IPC: 0.370426 (Simulation time: 0 hr 24 min 13 sec) 
Heartbeat CPU 0 instructions: 600000003 cycles: 1382257480 heartbeat IPC: 0.499454 cumulative IPC: 0.37235 (Simulation time: 0 hr 24 min 36 sec) 
Heartbeat CPU 0 instructions: 610000003 cycles: 1402296661 heartbeat IPC: 0.499022 cumulative IPC: 0.374213 (Simulation time: 0 hr 24 min 58 sec) 
Heartbeat CPU 0 instructions: 620000000 cycles: 1425642570 heartbeat IPC: 0.42834 cumulative IPC: 0.375124 (Simulation time: 0 hr 25 min 31 sec) 
Heartbeat CPU 0 instructions: 630000000 cycles: 1450080645 heartbeat IPC: 0.409198 cumulative IPC: 0.375715 (Simulation time: 0 hr 26 min 3 sec) 
Heartbeat CPU 0 instructions: 640000001 cycles: 1472614254 heartbeat IPC: 0.443782 cumulative IPC: 0.376785 (Simulation time: 0 hr 26 min 26 sec) 
Heartbeat CPU 0 instructions: 650000003 cycles: 1494897037 heartbeat IPC: 0.448777 cumulative IPC: 0.377887 (Simulation time: 0 hr 26 min 49 sec) 
Heartbeat CPU 0 instructions: 660000000 cycles: 1519770773 heartbeat IPC: 0.40203 cumulative IPC: 0.378293 (Simulation time: 0 hr 27 min 24 sec) 
Heartbeat CPU 0 instructions: 670000001 cycles: 1541291197 heartbeat IPC: 0.464675 cumulative IPC: 0.37953 (Simulation time: 0 hr 27 min 54 sec) 
Heartbeat CPU 0 instructions: 680000003 cycles: 1558963467 heartbeat IPC: 0.565858 cumulative IPC: 0.381697 (Simulation time: 0 hr 28 min 17 sec) 
Heartbeat CPU 0 instructions: 690000000 cycles: 1577338585 heartbeat IPC: 0.544214 cumulative IPC: 0.383639 (Simulation time: 0 hr 28 min 43 sec) 
Heartbeat CPU 0 instructions: 700000000 cycles: 1602365278 heartbeat IPC: 0.399573 cumulative IPC: 0.383894 (Simulation time: 0 hr 29 min 20 sec) 
Heartbeat CPU 0 instructions: 710000001 cycles: 1620943299 heartbeat IPC: 0.538271 cumulative IPC: 0.385708 (Simulation time: 0 hr 29 min 47 sec) 
Heartbeat CPU 0 instructions: 720000000 cycles: 1636660628 heartbeat IPC: 0.63624 cumulative IPC: 0.388173 (Simulation time: 0 hr 30 min 11 sec) 
Heartbeat CPU 0 instructions: 730000000 cycles: 1651582489 heartbeat IPC: 0.670158 cumulative IPC: 0.390783 (Simulation time: 0 hr 30 min 34 sec) 
Heartbeat CPU 0 instructions: 740000002 cycles: 1667274880 heartbeat IPC: 0.637252 cumulative IPC: 0.393159 (Simulation time: 0 hr 30 min 58 sec) 
Heartbeat CPU 0 instructions: 750000001 cycles: 1682941091 heartbeat IPC: 0.638316 cumulative IPC: 0.395496 (Simulation time: 0 hr 31 min 22 sec) 
Heartbeat CPU 0 instructions: 760000001 cycles: 1707923064 heartbeat IPC: 0.400289 cumulative IPC: 0.395568 (Simulation time: 0 hr 31 min 58 sec) 
Heartbeat CPU 0 instructions: 770000000 cycles: 1728280221 heartbeat IPC: 0.491228 cumulative IPC: 0.396721 (Simulation time: 0 hr 32 min 30 sec) 
Heartbeat CPU 0 instructions: 780000002 cycles: 1745647412 heartbeat IPC: 0.575798 cumulative IPC: 0.398544 (Simulation time: 0 hr 32 min 59 sec) 
Heartbeat CPU 0 instructions: 790000003 cycles: 1763959773 heartbeat IPC: 0.546079 cumulative IPC: 0.40011 (Simulation time: 0 hr 33 min 28 sec) 
Heartbeat CPU 0 instructions: 800000003 cycles: 1788853845 heartbeat IPC: 0.401702 cumulative IPC: 0.400133 (Simulation time: 0 hr 34 min 5 sec) 
Heartbeat CPU 0 instructions: 810000000 cycles: 1806110920 heartbeat IPC: 0.579472 cumulative IPC: 0.401885 (Simulation time: 0 hr 34 min 31 sec) 
Heartbeat CPU 0 instructions: 820000000 cycles: 1821808187 heartbeat IPC: 0.637054 cumulative IPC: 0.403956 (Simulation time: 0 hr 34 min 54 sec) 
Heartbeat CPU 0 instructions: 830000000 cycles: 1836740390 heartbeat IPC: 0.669694 cumulative IPC: 0.406164 (Simulation time: 0 hr 35 min 18 sec) 
Heartbeat CPU 0 instructions: 840000001 cycles: 1852449062 heartbeat IPC: 0.636591 cumulative IPC: 0.40816 (Simulation time: 0 hr 35 min 42 sec) 
Heartbeat CPU 0 instructions: 850000000 cycles: 1869381262 heartbeat IPC: 0.590591 cumulative IPC: 0.409848 (Simulation time: 0 hr 36 min 8 sec) 
Heartbeat CPU 0 instructions: 860000000 cycles: 1894421305 heartbeat IPC: 0.39936 cumulative IPC: 0.409707 (Simulation time: 0 hr 36 min 44 sec) 
Heartbeat CPU 0 instructions: 870000001 cycles: 1913627071 heartbeat IPC: 0.520677 cumulative IPC: 0.410844 (Simulation time: 0 hr 37 min 14 sec) 
Heartbeat CPU 0 instructions: 880000000 cycles: 1930817096 heartbeat IPC: 0.581733 cumulative IPC: 0.412397 (Simulation time: 0 hr 37 min 42 sec) 
Heartbeat CPU 0 instructions: 890000002 cycles: 1946045715 heartbeat IPC: 0.656658 cumulative IPC: 0.414348 (Simulation time: 0 hr 38 min 7 sec) 
Heartbeat CPU 0 instructions: 900000000 cycles: 1961741194 heartbeat IPC: 0.637126 cumulative IPC: 0.416167 (Simulation time: 0 hr 38 min 31 sec) 
Heartbeat CPU 0 instructions: 910000001 cycles: 1977880234 heartbeat IPC: 0.619616 cumulative IPC: 0.417861 (Simulation time: 0 hr 38 min 55 sec) 
Heartbeat CPU 0 instructions: 920000001 cycles: 2002867967 heartbeat IPC: 0.400196 cumulative IPC: 0.417636 (Simulation time: 0 hr 39 min 32 sec) 
Heartbeat CPU 0 instructions: 930000000 cycles: 2022492770 heartbeat IPC: 0.509559 cumulative IPC: 0.418546 (Simulation time: 0 hr 40 min 3 sec) 
Heartbeat CPU 0 instructions: 940000002 cycles: 2039333499 heartbeat IPC: 0.593799 cumulative IPC: 0.420021 (Simulation time: 0 hr 40 min 31 sec) 
Heartbeat CPU 0 instructions: 950000003 cycles: 2057781605 heartbeat IPC: 0.542061 cumulative IPC: 0.421137 (Simulation time: 0 hr 41 min 0 sec) 
Heartbeat CPU 0 instructions: 960000003 cycles: 2082638553 heartbeat IPC: 0.402302 cumulative IPC: 0.420908 (Simulation time: 0 hr 41 min 36 sec) 
Heartbeat CPU 0 instructions: 970000002 cycles: 2100729285 heartbeat IPC: 0.552769 cumulative IPC: 0.422065 (Simulation time: 0 hr 42 min 5 sec) 
Heartbeat CPU 0 instructions: 980000002 cycles: 2117914267 heartbeat IPC: 0.581903 cumulative IPC: 0.423387 (Simulation time: 0 hr 42 min 33 sec) 
Heartbeat CPU 0 instructions: 990000000 cycles: 2144027093 heartbeat IPC: 0.382953 cumulative IPC: 0.422885 (Simulation time: 0 hr 42 min 56 sec) 
Heartbeat CPU 0 instructions: 1000000002 cycles: 2178513229 heartbeat IPC: 0.289972 cumulative IPC: 0.420742 (Simulation time: 0 hr 43 min 19 sec) 
Heartbeat CPU 0 instructions: 1010000001 cycles: 2209216539 heartbeat IPC: 0.325698 cumulative IPC: 0.419397 (Simulation time: 0 hr 43 min 42 sec) 
Heartbeat CPU 0 instructions: 1020000001 cycles: 2226029857 heartbeat IPC: 0.594767 cumulative IPC: 0.420746 (Simulation time: 0 hr 44 min 10 sec) 
Heartbeat CPU 0 instructions: 1030000001 cycles: 2242432900 heartbeat IPC: 0.609643 cumulative IPC: 0.422152 (Simulation time: 0 hr 44 min 37 sec) 
Heartbeat CPU 0 instructions: 1040000002 cycles: 2265715558 heartbeat IPC: 0.429504 cumulative IPC: 0.422229 (Simulation time: 0 hr 45 min 11 sec) 
Heartbeat CPU 0 instructions: 1050000002 cycles: 2286333852 heartbeat IPC: 0.485006 cumulative IPC: 0.422805 (Simulation time: 0 hr 45 min 43 sec) 
Heartbeat CPU 0 instructions: 1060000002 cycles: 2300828215 heartbeat IPC: 0.689923 cumulative IPC: 0.424517 (Simulation time: 0 hr 46 min 7 sec) 
Heartbeat CPU 0 instructions: 1070000003 cycles: 2315671348 heartbeat IPC: 0.673712 cumulative IPC: 0.426142 (Simulation time: 0 hr 46 min 32 sec) 
Heartbeat CPU 0 instructions: 1080000003 cycles: 2340556123 heartbeat IPC: 0.401852 cumulative IPC: 0.425879 (Simulation time: 0 hr 47 min 8 sec) 
Heartbeat CPU 0 instructions: 1090000002 cycles: 2359508588 heartbeat IPC: 0.527636 cumulative IPC: 0.426711 (Simulation time: 0 hr 47 min 36 sec) 
Heartbeat CPU 0 instructions: 1100000000 cycles: 2375202909 heartbeat IPC: 0.637173 cumulative IPC: 0.428125 (Simulation time: 0 hr 48 min 0 sec) 
Finished CPU 0 instructions: 1000000002 cycles: 2335767521 cumulative IPC: 0.428125 (Simulation time: 0 hr 48 min 0 sec) 

ChampSim completed all CPUs

Region of Interest Statistics

CPU 0 cumulative IPC: 0.428125 instructions: 1000000002 cycles: 2335767521
L1D TOTAL     ACCESS:  144209927  HIT:  117985890  MISS:   26224037
L1D LOAD      ACCESS:   95302691  HIT:   69078840  MISS:   26223851
L1D RFO       ACCESS:   48907236  HIT:   48907050  MISS:        186
L1D PREFETCH  ACCESS:          0  HIT:          0  MISS:          0
L1D WRITEBACK ACCESS:          0  HIT:          0  MISS:          0
L1D PREFETCH  REQUESTED:          0  ISSUED:          0  USEFUL:          0  USELESS:          0
L1D AVERAGE MISS LATENCY: 196.02 cycles
L1I TOTAL     ACCESS:  220381322  HIT:  220381306  MISS:         16
L1I LOAD      ACCESS:  220381322  HIT:  220381306  MISS:         16
L1I RFO       ACCESS:          0  HIT:          0  MISS:          0
L1I PREFETCH  ACCESS:          0  HIT:          0  MISS:          0
L1I WRITEBACK ACCESS:          0  HIT:          0  MISS:          0
L1I PREFETCH  REQUESTED:          0  ISSUED:          0  USEFUL:          0  USELESS:          0
L1I AVERAGE MISS LATENCY: 236.312 cycles
L2C TOTAL     ACCESS:   40036375  HIT:   13812322  MISS:   26224053
L2C LOAD      ACCESS:   26223867  HIT:          0  MISS:   26223867
L2C RFO       ACCESS:        186  HIT:          0  MISS:        186
L2C PREFETCH  ACCESS:          0  HIT:          0  MISS:          0
L2C WRITEBACK ACCESS:   13812322  HIT:   13812322  MISS:          0
L2C PREFETCH  REQUESTED:          0  ISSUED:          0  USEFUL:          0  USELESS:          0
L2C AVERAGE MISS LATENCY: 183.605 cycles
LLC TOTAL     ACCESS:   40036375  HIT:     756981  MISS:   39279394
LLC LOAD      ACCESS:   26223867  HIT:     726609  MISS:   25497258
LLC RFO       ACCESS:        186  HIT:        105  MISS:         81
LLC PREFETCH  ACCESS:          0  HIT:          0  MISS:          0
LLC WRITEBACK ACCESS:   13812322  HIT:      30267  MISS:   13782055
LLC PREFETCH  REQUESTED:          0  ISSUED:          0  USEFUL:          0  USELESS:          0
LLC AVERAGE MISS LATENCY: 95.5938 cycles
Major fault: 0 Minor fault: 8200

DRAM Statistics
 CHANNEL 0
 RQ ROW_BUFFER_HIT:   11142019  ROW_BUFFER_MISS:   14355320
 DBUS_CONGESTED:   14495139
 WQ ROW_BUFFER_HIT:   11769533  ROW_BUFFER_MISS:    2042640  FULL:          0

 AVG_CONGESTED_CYCLE: 6

CPU 0 Branch Prediction Accuracy: 97.2039% MPKI: 4.75176 Average ROB Occupancy at Mispredict: 41.1148

Branch types
NOT_BRANCH: 830056091 83.0056%
BRANCH_DIRECT_JUMP: 4 4e-07%
BRANCH_INDIRECT: 50 5e-06%
BRANCH_CONDITIONAL: 169943693 16.9944%
BRANCH_DIRECT_CALL: 252 2.52e-05%
BRANCH_INDIRECT_CALL: 0 0%
BRANCH_RETURN: 250 2.5e-05%
BRANCH_OTHER: 0 0%

