
*** ChampSim Multicore Out-of-Order Simulator ***

Warmup Instructions: 100000000
Simulation Instructions: 1000000000
Number of CPUs: 1
LLC sets: 2048
LLC ways: 16
Off-chip DRAM Size: 4096 MB Channels: 1 Width: 64-bit Data Rate: 3200 MT/s

CPU 0 runs /scratch/user/kevin.weston/dpc3-traces/462.champsimtrace.xz
CPU 0 Bimodal branch predictor
Per-line RRPV Initialized
PRRIP State Initialized
Assign SAMPLER_SET[0]: 454  LLC: 2048
SAMPLER_SET[0]: 454
Assign SAMPLER_SET[1]: 1662  LLC: 2048
SAMPLER_SET[1]: 1662
Assign SAMPLER_SET[2]: 1921  LLC: 2048
SAMPLER_SET[2]: 1921
Assign SAMPLER_SET[3]: 1131  LLC: 2048
SAMPLER_SET[3]: 1131
Assign SAMPLER_SET[4]: 331  LLC: 2048
SAMPLER_SET[4]: 331
Assign SAMPLER_SET[5]: 1531  LLC: 2048
SAMPLER_SET[5]: 1531
Assign SAMPLER_SET[6]: 482  LLC: 2048
SAMPLER_SET[6]: 482
Assign SAMPLER_SET[7]: 1275  LLC: 2048
SAMPLER_SET[7]: 1275
Assign SAMPLER_SET[8]: 1876  LLC: 2048
SAMPLER_SET[8]: 1876
Assign SAMPLER_SET[9]: 2038  LLC: 2048
SAMPLER_SET[9]: 2038
Assign SAMPLER_SET[10]: 701  LLC: 2048
SAMPLER_SET[10]: 701
Assign SAMPLER_SET[11]: 479  LLC: 2048
SAMPLER_SET[11]: 479
Assign SAMPLER_SET[12]: 892  LLC: 2048
SAMPLER_SET[12]: 892
Assign SAMPLER_SET[13]: 1820  LLC: 2048
SAMPLER_SET[13]: 1820
Assign SAMPLER_SET[14]: 1505  LLC: 2048
SAMPLER_SET[14]: 1505
Assign SAMPLER_SET[15]: 1159  LLC: 2048
SAMPLER_SET[15]: 1159
Assign SAMPLER_SET[16]: 513  LLC: 2048
SAMPLER_SET[16]: 513
Assign SAMPLER_SET[17]: 703  LLC: 2048
SAMPLER_SET[17]: 703
Assign SAMPLER_SET[18]: 561  LLC: 2048
SAMPLER_SET[18]: 561
Assign SAMPLER_SET[19]: 990  LLC: 2048
SAMPLER_SET[19]: 990
Assign SAMPLER_SET[20]: 342  LLC: 2048
SAMPLER_SET[20]: 342
Assign SAMPLER_SET[21]: 882  LLC: 2048
SAMPLER_SET[21]: 882
Assign SAMPLER_SET[22]: 15  LLC: 2048
SAMPLER_SET[22]: 15
Assign SAMPLER_SET[23]: 71  LLC: 2048
SAMPLER_SET[23]: 71
Assign SAMPLER_SET[24]: 1127  LLC: 2048
SAMPLER_SET[24]: 1127
Assign SAMPLER_SET[25]: 1382  LLC: 2048
SAMPLER_SET[25]: 1382
Assign SAMPLER_SET[26]: 647  LLC: 2048
SAMPLER_SET[26]: 647
Assign SAMPLER_SET[27]: 857  LLC: 2048
SAMPLER_SET[27]: 857
Assign SAMPLER_SET[28]: 1450  LLC: 2048
SAMPLER_SET[28]: 1450
Assign SAMPLER_SET[29]: 1160  LLC: 2048
SAMPLER_SET[29]: 1160
Assign SAMPLER_SET[30]: 1852  LLC: 2048
SAMPLER_SET[30]: 1852
Assign SAMPLER_SET[31]: 1881  LLC: 2048
SAMPLER_SET[31]: 1881
Assign SAMPLER_SET[32]: 1770  LLC: 2048
SAMPLER_SET[32]: 1770
Assign SAMPLER_SET[33]: 1622  LLC: 2048
SAMPLER_SET[33]: 1622
Assign SAMPLER_SET[34]: 275  LLC: 2048
SAMPLER_SET[34]: 275
Assign SAMPLER_SET[35]: 635  LLC: 2048
SAMPLER_SET[35]: 635
Assign SAMPLER_SET[36]: 466  LLC: 2048
SAMPLER_SET[36]: 466
Assign SAMPLER_SET[37]: 1413  LLC: 2048
SAMPLER_SET[37]: 1413
Assign SAMPLER_SET[38]: 417  LLC: 2048
SAMPLER_SET[38]: 417
Assign SAMPLER_SET[39]: 472  LLC: 2048
SAMPLER_SET[39]: 472
Assign SAMPLER_SET[40]: 1340  LLC: 2048
SAMPLER_SET[40]: 1340
Assign SAMPLER_SET[41]: 852  LLC: 2048
SAMPLER_SET[41]: 852
Assign SAMPLER_SET[42]: 1365  LLC: 2048
SAMPLER_SET[42]: 1365
Assign SAMPLER_SET[43]: 47  LLC: 2048
SAMPLER_SET[43]: 47
Assign SAMPLER_SET[44]: 823  LLC: 2048
SAMPLER_SET[44]: 823
Assign SAMPLER_SET[45]: 686  LLC: 2048
SAMPLER_SET[45]: 686
Assign SAMPLER_SET[46]: 1637  LLC: 2048
SAMPLER_SET[46]: 1637
Assign SAMPLER_SET[47]: 1115  LLC: 2048
SAMPLER_SET[47]: 1115
Assign SAMPLER_SET[48]: 986  LLC: 2048
SAMPLER_SET[48]: 986
Assign SAMPLER_SET[49]: 258  LLC: 2048
SAMPLER_SET[49]: 258
Assign SAMPLER_SET[50]: 633  LLC: 2048
SAMPLER_SET[50]: 633
Assign SAMPLER_SET[51]: 920  LLC: 2048
SAMPLER_SET[51]: 920
Assign SAMPLER_SET[52]: 204  LLC: 2048
SAMPLER_SET[52]: 204
Assign SAMPLER_SET[53]: 227  LLC: 2048
SAMPLER_SET[53]: 227
Assign SAMPLER_SET[54]: 1818  LLC: 2048
SAMPLER_SET[54]: 1818
Assign SAMPLER_SET[55]: 886  LLC: 2048
SAMPLER_SET[55]: 886
Assign SAMPLER_SET[56]: 1422  LLC: 2048
SAMPLER_SET[56]: 1422
Assign SAMPLER_SET[57]: 607  LLC: 2048
SAMPLER_SET[57]: 607
Assign SAMPLER_SET[58]: 217  LLC: 2048
SAMPLER_SET[58]: 217
Assign SAMPLER_SET[59]: 1945  LLC: 2048
SAMPLER_SET[59]: 1945
Assign SAMPLER_SET[60]: 143  LLC: 2048
SAMPLER_SET[60]: 143
Assign SAMPLER_SET[61]: 1311  LLC: 2048
SAMPLER_SET[61]: 1311
Assign SAMPLER_SET[62]: 319  LLC: 2048
SAMPLER_SET[62]: 319
Assign SAMPLER_SET[63]: 1846  LLC: 2048
SAMPLER_SET[63]: 1846
Heartbeat CPU 0 instructions: 10000001 cycles: 3821111 heartbeat IPC: 2.61704 cumulative IPC: 2.61704 (Simulation time: 0 hr 0 min 12 sec) 
Heartbeat CPU 0 instructions: 20000001 cycles: 8504542 heartbeat IPC: 2.13519 cumulative IPC: 2.35168 (Simulation time: 0 hr 0 min 34 sec) 
Heartbeat CPU 0 instructions: 30000000 cycles: 12442543 heartbeat IPC: 2.53936 cumulative IPC: 2.41108 (Simulation time: 0 hr 0 min 47 sec) 
Heartbeat CPU 0 instructions: 40000000 cycles: 16073747 heartbeat IPC: 2.75391 cumulative IPC: 2.48853 (Simulation time: 0 hr 0 min 57 sec) 
Heartbeat CPU 0 instructions: 50000002 cycles: 19706988 heartbeat IPC: 2.75236 cumulative IPC: 2.53717 (Simulation time: 0 hr 1 min 7 sec) 
Heartbeat CPU 0 instructions: 60000002 cycles: 23343353 heartbeat IPC: 2.75 cumulative IPC: 2.57032 (Simulation time: 0 hr 1 min 16 sec) 
Heartbeat CPU 0 instructions: 70000002 cycles: 27076485 heartbeat IPC: 2.67872 cumulative IPC: 2.58527 (Simulation time: 0 hr 1 min 27 sec) 
Heartbeat CPU 0 instructions: 80000002 cycles: 31772202 heartbeat IPC: 2.1296 cumulative IPC: 2.51792 (Simulation time: 0 hr 1 min 49 sec) 
Heartbeat CPU 0 instructions: 90000000 cycles: 35804312 heartbeat IPC: 2.48009 cumulative IPC: 2.51366 (Simulation time: 0 hr 2 min 3 sec) 
Heartbeat CPU 0 instructions: 100000000 cycles: 39435516 heartbeat IPC: 2.75391 cumulative IPC: 2.53579 (Simulation time: 0 hr 2 min 13 sec) 

Warmup complete CPU 0 instructions: 100000004 cycles: 39435517 (Simulation time: 0 hr 2 min 13 sec) 

Heartbeat CPU 0 instructions: 110000000 cycles: 55622375 heartbeat IPC: 0.617785 cumulative IPC: 0.617785 (Simulation time: 0 hr 2 min 36 sec) 
Heartbeat CPU 0 instructions: 120000000 cycles: 71939178 heartbeat IPC: 0.612865 cumulative IPC: 0.615315 (Simulation time: 0 hr 2 min 58 sec) 
Heartbeat CPU 0 instructions: 130000000 cycles: 89038553 heartbeat IPC: 0.584817 cumulative IPC: 0.604802 (Simulation time: 0 hr 3 min 21 sec) 
Heartbeat CPU 0 instructions: 140000001 cycles: 112552250 heartbeat IPC: 0.425284 cumulative IPC: 0.54707 (Simulation time: 0 hr 3 min 55 sec) 
Heartbeat CPU 0 instructions: 150000002 cycles: 132555497 heartbeat IPC: 0.499919 cumulative IPC: 0.536942 (Simulation time: 0 hr 4 min 24 sec) 
Heartbeat CPU 0 instructions: 160000003 cycles: 147666698 heartbeat IPC: 0.661761 cumulative IPC: 0.554369 (Simulation time: 0 hr 4 min 46 sec) 
Heartbeat CPU 0 instructions: 170000003 cycles: 163841794 heartbeat IPC: 0.618234 cumulative IPC: 0.562673 (Simulation time: 0 hr 5 min 9 sec) 
Heartbeat CPU 0 instructions: 180000003 cycles: 181138487 heartbeat IPC: 0.578145 cumulative IPC: 0.564561 (Simulation time: 0 hr 5 min 31 sec) 
Heartbeat CPU 0 instructions: 190000003 cycles: 199281413 heartbeat IPC: 0.551179 cumulative IPC: 0.563042 (Simulation time: 0 hr 5 min 54 sec) 
Heartbeat CPU 0 instructions: 200000001 cycles: 222134008 heartbeat IPC: 0.437587 cumulative IPC: 0.54735 (Simulation time: 0 hr 6 min 27 sec) 
Heartbeat CPU 0 instructions: 210000001 cycles: 244967743 heartbeat IPC: 0.437948 cumulative IPC: 0.535196 (Simulation time: 0 hr 6 min 56 sec) 
Heartbeat CPU 0 instructions: 220000000 cycles: 264277209 heartbeat IPC: 0.517881 cumulative IPC: 0.533709 (Simulation time: 0 hr 7 min 18 sec) 
Heartbeat CPU 0 instructions: 230000002 cycles: 285016554 heartbeat IPC: 0.482175 cumulative IPC: 0.529357 (Simulation time: 0 hr 7 min 42 sec) 
Heartbeat CPU 0 instructions: 240000002 cycles: 308648023 heartbeat IPC: 0.423165 cumulative IPC: 0.520035 (Simulation time: 0 hr 8 min 16 sec) 
Heartbeat CPU 0 instructions: 250000003 cycles: 329743248 heartbeat IPC: 0.474041 cumulative IPC: 0.516693 (Simulation time: 0 hr 8 min 43 sec) 
Heartbeat CPU 0 instructions: 260000003 cycles: 348048357 heartbeat IPC: 0.546296 cumulative IPC: 0.518449 (Simulation time: 0 hr 9 min 5 sec) 
Heartbeat CPU 0 instructions: 270000001 cycles: 370806287 heartbeat IPC: 0.439407 cumulative IPC: 0.513021 (Simulation time: 0 hr 9 min 27 sec) 
Heartbeat CPU 0 instructions: 280000001 cycles: 400814599 heartbeat IPC: 0.333241 cumulative IPC: 0.498092 (Simulation time: 0 hr 9 min 50 sec) 
Heartbeat CPU 0 instructions: 290000003 cycles: 432433588 heartbeat IPC: 0.316266 cumulative IPC: 0.483463 (Simulation time: 0 hr 10 min 14 sec) 
Heartbeat CPU 0 instructions: 300000000 cycles: 457913624 heartbeat IPC: 0.392464 cumulative IPC: 0.477922 (Simulation time: 0 hr 10 min 45 sec) 
Heartbeat CPU 0 instructions: 310000001 cycles: 482746848 heartbeat IPC: 0.402686 cumulative IPC: 0.473708 (Simulation time: 0 hr 11 min 16 sec) 
Heartbeat CPU 0 instructions: 320000002 cycles: 506779088 heartbeat IPC: 0.416108 cumulative IPC: 0.470746 (Simulation time: 0 hr 11 min 37 sec) 
Heartbeat CPU 0 instructions: 330000000 cycles: 532178386 heartbeat IPC: 0.393712 cumulative IPC: 0.466775 (Simulation time: 0 hr 11 min 58 sec) 
Heartbeat CPU 0 instructions: 340000002 cycles: 568582359 heartbeat IPC: 0.274695 cumulative IPC: 0.45356 (Simulation time: 0 hr 12 min 21 sec) 
Heartbeat CPU 0 instructions: 350000000 cycles: 603628336 heartbeat IPC: 0.285339 cumulative IPC: 0.443111 (Simulation time: 0 hr 12 min 44 sec) 
Heartbeat CPU 0 instructions: 360000000 cycles: 636321498 heartbeat IPC: 0.305874 cumulative IPC: 0.435594 (Simulation time: 0 hr 13 min 11 sec) 
Heartbeat CPU 0 instructions: 370000000 cycles: 660001735 heartbeat IPC: 0.422293 cumulative IPC: 0.435087 (Simulation time: 0 hr 13 min 45 sec) 
Heartbeat CPU 0 instructions: 380000002 cycles: 696366383 heartbeat IPC: 0.274992 cumulative IPC: 0.426224 (Simulation time: 0 hr 14 min 12 sec) 
Heartbeat CPU 0 instructions: 390000001 cycles: 732021864 heartbeat IPC: 0.280462 cumulative IPC: 0.41872 (Simulation time: 0 hr 14 min 37 sec) 
Heartbeat CPU 0 instructions: 400000001 cycles: 761402277 heartbeat IPC: 0.340363 cumulative IPC: 0.415532 (Simulation time: 0 hr 15 min 9 sec) 
Heartbeat CPU 0 instructions: 410000000 cycles: 786541719 heartbeat IPC: 0.397781 cumulative IPC: 0.414934 (Simulation time: 0 hr 15 min 41 sec) 
Heartbeat CPU 0 instructions: 420000001 cycles: 817307107 heartbeat IPC: 0.325041 cumulative IPC: 0.411379 (Simulation time: 0 hr 16 min 2 sec) 
Heartbeat CPU 0 instructions: 430000001 cycles: 848031372 heartbeat IPC: 0.325476 cumulative IPC: 0.408115 (Simulation time: 0 hr 16 min 23 sec) 
Heartbeat CPU 0 instructions: 440000000 cycles: 881909057 heartbeat IPC: 0.29518 cumulative IPC: 0.403574 (Simulation time: 0 hr 16 min 45 sec) 
Heartbeat CPU 0 instructions: 450000001 cycles: 914739431 heartbeat IPC: 0.304596 cumulative IPC: 0.399861 (Simulation time: 0 hr 17 min 5 sec) 
Heartbeat CPU 0 instructions: 460000000 cycles: 948884366 heartbeat IPC: 0.292869 cumulative IPC: 0.395844 (Simulation time: 0 hr 17 min 27 sec) 
Heartbeat CPU 0 instructions: 470000000 cycles: 980912199 heartbeat IPC: 0.312228 cumulative IPC: 0.393 (Simulation time: 0 hr 17 min 49 sec) 
Heartbeat CPU 0 instructions: 480000000 cycles: 1010416735 heartbeat IPC: 0.338931 cumulative IPC: 0.391357 (Simulation time: 0 hr 18 min 17 sec) 
Heartbeat CPU 0 instructions: 490000000 cycles: 1033973735 heartbeat IPC: 0.424502 cumulative IPC: 0.392142 (Simulation time: 0 hr 18 min 51 sec) 
Heartbeat CPU 0 instructions: 500000002 cycles: 1071789293 heartbeat IPC: 0.264441 cumulative IPC: 0.387464 (Simulation time: 0 hr 19 min 17 sec) 
Heartbeat CPU 0 instructions: 510000001 cycles: 1107906093 heartbeat IPC: 0.276879 cumulative IPC: 0.383726 (Simulation time: 0 hr 19 min 43 sec) 
Heartbeat CPU 0 instructions: 520000001 cycles: 1135248768 heartbeat IPC: 0.365729 cumulative IPC: 0.383277 (Simulation time: 0 hr 20 min 15 sec) 
Heartbeat CPU 0 instructions: 530000002 cycles: 1160882321 heartbeat IPC: 0.390114 cumulative IPC: 0.383433 (Simulation time: 0 hr 20 min 46 sec) 
Heartbeat CPU 0 instructions: 540000000 cycles: 1190206979 heartbeat IPC: 0.34101 cumulative IPC: 0.382352 (Simulation time: 0 hr 21 min 7 sec) 
Heartbeat CPU 0 instructions: 550000000 cycles: 1219501544 heartbeat IPC: 0.34136 cumulative IPC: 0.381335 (Simulation time: 0 hr 21 min 29 sec) 
Heartbeat CPU 0 instructions: 560000003 cycles: 1244110362 heartbeat IPC: 0.406359 cumulative IPC: 0.381846 (Simulation time: 0 hr 22 min 2 sec) 
Heartbeat CPU 0 instructions: 570000000 cycles: 1269356217 heartbeat IPC: 0.396105 cumulative IPC: 0.382138 (Simulation time: 0 hr 22 min 31 sec) 
Heartbeat CPU 0 instructions: 580000002 cycles: 1295871366 heartbeat IPC: 0.377143 cumulative IPC: 0.382033 (Simulation time: 0 hr 22 min 53 sec) 
Heartbeat CPU 0 instructions: 590000003 cycles: 1321637859 heartbeat IPC: 0.388101 cumulative IPC: 0.382155 (Simulation time: 0 hr 23 min 15 sec) 
Heartbeat CPU 0 instructions: 600000003 cycles: 1341389441 heartbeat IPC: 0.506289 cumulative IPC: 0.384038 (Simulation time: 0 hr 23 min 37 sec) 
Heartbeat CPU 0 instructions: 610000003 cycles: 1360982965 heartbeat IPC: 0.510373 cumulative IPC: 0.385911 (Simulation time: 0 hr 23 min 59 sec) 
Heartbeat CPU 0 instructions: 620000000 cycles: 1384111098 heartbeat IPC: 0.432374 cumulative IPC: 0.38671 (Simulation time: 0 hr 24 min 31 sec) 
Heartbeat CPU 0 instructions: 630000000 cycles: 1407533274 heartbeat IPC: 0.426946 cumulative IPC: 0.387399 (Simulation time: 0 hr 25 min 1 sec) 
Heartbeat CPU 0 instructions: 640000001 cycles: 1429652485 heartbeat IPC: 0.452096 cumulative IPC: 0.388429 (Simulation time: 0 hr 25 min 24 sec) 
Heartbeat CPU 0 instructions: 650000003 cycles: 1451263800 heartbeat IPC: 0.462721 cumulative IPC: 0.389566 (Simulation time: 0 hr 25 min 46 sec) 
Heartbeat CPU 0 instructions: 660000000 cycles: 1475488555 heartbeat IPC: 0.412801 cumulative IPC: 0.389958 (Simulation time: 0 hr 26 min 20 sec) 
Heartbeat CPU 0 instructions: 670000001 cycles: 1496238939 heartbeat IPC: 0.481919 cumulative IPC: 0.391268 (Simulation time: 0 hr 26 min 48 sec) 
Heartbeat CPU 0 instructions: 680000003 cycles: 1513776404 heartbeat IPC: 0.570208 cumulative IPC: 0.393396 (Simulation time: 0 hr 27 min 11 sec) 
Heartbeat CPU 0 instructions: 690000000 cycles: 1532447240 heartbeat IPC: 0.535595 cumulative IPC: 0.395174 (Simulation time: 0 hr 27 min 35 sec) 
Heartbeat CPU 0 instructions: 700000000 cycles: 1556680351 heartbeat IPC: 0.412659 cumulative IPC: 0.395454 (Simulation time: 0 hr 28 min 10 sec) 
Heartbeat CPU 0 instructions: 710000001 cycles: 1574400611 heartbeat IPC: 0.564326 cumulative IPC: 0.397403 (Simulation time: 0 hr 28 min 36 sec) 
Heartbeat CPU 0 instructions: 720000000 cycles: 1589903211 heartbeat IPC: 0.645053 cumulative IPC: 0.399879 (Simulation time: 0 hr 28 min 59 sec) 
Heartbeat CPU 0 instructions: 730000000 cycles: 1605130466 heartbeat IPC: 0.656717 cumulative IPC: 0.402377 (Simulation time: 0 hr 29 min 21 sec) 
Heartbeat CPU 0 instructions: 740000002 cycles: 1620665870 heartbeat IPC: 0.643691 cumulative IPC: 0.404748 (Simulation time: 0 hr 29 min 44 sec) 
Heartbeat CPU 0 instructions: 750000001 cycles: 1636620320 heartbeat IPC: 0.626784 cumulative IPC: 0.406966 (Simulation time: 0 hr 30 min 8 sec) 
Heartbeat CPU 0 instructions: 760000001 cycles: 1660802116 heartbeat IPC: 0.413534 cumulative IPC: 0.407064 (Simulation time: 0 hr 30 min 42 sec) 
Heartbeat CPU 0 instructions: 770000000 cycles: 1678857423 heartbeat IPC: 0.553854 cumulative IPC: 0.408681 (Simulation time: 0 hr 31 min 10 sec) 
Heartbeat CPU 0 instructions: 780000002 cycles: 1693223887 heartbeat IPC: 0.696066 cumulative IPC: 0.411177 (Simulation time: 0 hr 31 min 33 sec) 
Heartbeat CPU 0 instructions: 790000003 cycles: 1710199636 heartbeat IPC: 0.589076 cumulative IPC: 0.412985 (Simulation time: 0 hr 32 min 0 sec) 
Heartbeat CPU 0 instructions: 800000003 cycles: 1734163697 heartbeat IPC: 0.417292 cumulative IPC: 0.413046 (Simulation time: 0 hr 32 min 34 sec) 
Heartbeat CPU 0 instructions: 810000000 cycles: 1750756746 heartbeat IPC: 0.602662 cumulative IPC: 0.414884 (Simulation time: 0 hr 32 min 58 sec) 
Heartbeat CPU 0 instructions: 820000000 cycles: 1766221105 heartbeat IPC: 0.646648 cumulative IPC: 0.41696 (Simulation time: 0 hr 33 min 21 sec) 
Heartbeat CPU 0 instructions: 830000000 cycles: 1781250455 heartbeat IPC: 0.665365 cumulative IPC: 0.419103 (Simulation time: 0 hr 33 min 44 sec) 
Heartbeat CPU 0 instructions: 840000001 cycles: 1796738545 heartbeat IPC: 0.645657 cumulative IPC: 0.4211 (Simulation time: 0 hr 34 min 7 sec) 
Heartbeat CPU 0 instructions: 850000000 cycles: 1813702642 heartbeat IPC: 0.58948 cumulative IPC: 0.42271 (Simulation time: 0 hr 34 min 32 sec) 
Heartbeat CPU 0 instructions: 860000000 cycles: 1838172461 heartbeat IPC: 0.408667 cumulative IPC: 0.422519 (Simulation time: 0 hr 35 min 7 sec) 
Heartbeat CPU 0 instructions: 870000001 cycles: 1854786648 heartbeat IPC: 0.601895 cumulative IPC: 0.42416 (Simulation time: 0 hr 35 min 33 sec) 
Heartbeat CPU 0 instructions: 880000000 cycles: 1868958848 heartbeat IPC: 0.705607 cumulative IPC: 0.426341 (Simulation time: 0 hr 35 min 57 sec) 
Heartbeat CPU 0 instructions: 890000002 cycles: 1883579897 heartbeat IPC: 0.683946 cumulative IPC: 0.428383 (Simulation time: 0 hr 36 min 20 sec) 
Heartbeat CPU 0 instructions: 900000000 cycles: 1899040727 heartbeat IPC: 0.646796 cumulative IPC: 0.430199 (Simulation time: 0 hr 36 min 43 sec) 
Heartbeat CPU 0 instructions: 910000001 cycles: 1915511382 heartbeat IPC: 0.60714 cumulative IPC: 0.431752 (Simulation time: 0 hr 37 min 8 sec) 
Heartbeat CPU 0 instructions: 920000001 cycles: 1939762368 heartbeat IPC: 0.412354 cumulative IPC: 0.431505 (Simulation time: 0 hr 37 min 42 sec) 
Heartbeat CPU 0 instructions: 930000000 cycles: 1956947732 heartbeat IPC: 0.58189 cumulative IPC: 0.432853 (Simulation time: 0 hr 38 min 9 sec) 
Heartbeat CPU 0 instructions: 940000002 cycles: 1970783129 heartbeat IPC: 0.722784 cumulative IPC: 0.434929 (Simulation time: 0 hr 38 min 33 sec) 
Heartbeat CPU 0 instructions: 950000003 cycles: 1988209198 heartbeat IPC: 0.573853 cumulative IPC: 0.436172 (Simulation time: 0 hr 39 min 0 sec) 
Heartbeat CPU 0 instructions: 960000003 cycles: 2012162633 heartbeat IPC: 0.417477 cumulative IPC: 0.435945 (Simulation time: 0 hr 39 min 34 sec) 
Heartbeat CPU 0 instructions: 970000002 cycles: 2027635552 heartbeat IPC: 0.64629 cumulative IPC: 0.437582 (Simulation time: 0 hr 39 min 59 sec) 
Heartbeat CPU 0 instructions: 980000002 cycles: 2041868026 heartbeat IPC: 0.702619 cumulative IPC: 0.439465 (Simulation time: 0 hr 40 min 23 sec) 
Heartbeat CPU 0 instructions: 990000000 cycles: 2067008128 heartbeat IPC: 0.397771 cumulative IPC: 0.438949 (Simulation time: 0 hr 40 min 44 sec) 
Heartbeat CPU 0 instructions: 1000000002 cycles: 2100618668 heartbeat IPC: 0.297526 cumulative IPC: 0.436642 (Simulation time: 0 hr 41 min 5 sec) 
Heartbeat CPU 0 instructions: 1010000001 cycles: 2129638770 heartbeat IPC: 0.344589 cumulative IPC: 0.435364 (Simulation time: 0 hr 41 min 27 sec) 
Heartbeat CPU 0 instructions: 1020000001 cycles: 2143351848 heartbeat IPC: 0.729231 cumulative IPC: 0.43728 (Simulation time: 0 hr 41 min 50 sec) 
Heartbeat CPU 0 instructions: 1030000001 cycles: 2156908539 heartbeat IPC: 0.737643 cumulative IPC: 0.439203 (Simulation time: 0 hr 42 min 13 sec) 
Heartbeat CPU 0 instructions: 1040000002 cycles: 2180070345 heartbeat IPC: 0.431745 cumulative IPC: 0.439122 (Simulation time: 0 hr 42 min 47 sec) 
Heartbeat CPU 0 instructions: 1050000002 cycles: 2199503449 heartbeat IPC: 0.514586 cumulative IPC: 0.439801 (Simulation time: 0 hr 43 min 17 sec) 
Heartbeat CPU 0 instructions: 1060000002 cycles: 2213812665 heartbeat IPC: 0.69885 cumulative IPC: 0.441506 (Simulation time: 0 hr 43 min 40 sec) 
Heartbeat CPU 0 instructions: 1070000003 cycles: 2229035141 heartbeat IPC: 0.656923 cumulative IPC: 0.443003 (Simulation time: 0 hr 44 min 5 sec) 
Heartbeat CPU 0 instructions: 1080000003 cycles: 2253165138 heartbeat IPC: 0.414422 cumulative IPC: 0.442692 (Simulation time: 0 hr 44 min 40 sec) 
Heartbeat CPU 0 instructions: 1090000002 cycles: 2271099736 heartbeat IPC: 0.557581 cumulative IPC: 0.443615 (Simulation time: 0 hr 45 min 7 sec) 
Heartbeat CPU 0 instructions: 1100000000 cycles: 2286561634 heartbeat IPC: 0.646751 cumulative IPC: 0.445013 (Simulation time: 0 hr 45 min 30 sec) 
Finished CPU 0 instructions: 1000000002 cycles: 2247126134 cumulative IPC: 0.445013 (Simulation time: 0 hr 45 min 30 sec) 

ChampSim completed all CPUs

Region of Interest Statistics

CPU 0 cumulative IPC: 0.445013 instructions: 1000000002 cycles: 2247126134
L1D TOTAL     ACCESS:  143917024  HIT:  117692987  MISS:   26224037
L1D LOAD      ACCESS:   95009786  HIT:   68785935  MISS:   26223851
L1D RFO       ACCESS:   48907238  HIT:   48907052  MISS:        186
L1D PREFETCH  ACCESS:          0  HIT:          0  MISS:          0
L1D WRITEBACK ACCESS:          0  HIT:          0  MISS:          0
L1D PREFETCH  REQUESTED:          0  ISSUED:          0  USEFUL:          0  USELESS:          0
L1D AVERAGE MISS LATENCY: 186.193 cycles
L1I TOTAL     ACCESS:  220342697  HIT:  220342681  MISS:         16
L1I LOAD      ACCESS:  220342697  HIT:  220342681  MISS:         16
L1I RFO       ACCESS:          0  HIT:          0  MISS:          0
L1I PREFETCH  ACCESS:          0  HIT:          0  MISS:          0
L1I WRITEBACK ACCESS:          0  HIT:          0  MISS:          0
L1I PREFETCH  REQUESTED:          0  ISSUED:          0  USEFUL:          0  USELESS:          0
L1I AVERAGE MISS LATENCY: 237.188 cycles
L2C TOTAL     ACCESS:   40036375  HIT:   13812322  MISS:   26224053
L2C LOAD      ACCESS:   26223867  HIT:          0  MISS:   26223867
L2C RFO       ACCESS:        186  HIT:          0  MISS:        186
L2C PREFETCH  ACCESS:          0  HIT:          0  MISS:          0
L2C WRITEBACK ACCESS:   13812322  HIT:   13812322  MISS:          0
L2C PREFETCH  REQUESTED:          0  ISSUED:          0  USEFUL:          0  USELESS:          0
L2C AVERAGE MISS LATENCY: 173.784 cycles
LLC TOTAL     ACCESS:   40036375  HIT:    2213435  MISS:   37822940
LLC LOAD      ACCESS:   26223867  HIT:    1364636  MISS:   24859231
LLC RFO       ACCESS:        186  HIT:          0  MISS:        186
LLC PREFETCH  ACCESS:          0  HIT:          0  MISS:          0
LLC WRITEBACK ACCESS:   13812322  HIT:     848799  MISS:   12963523
LLC PREFETCH  REQUESTED:          0  ISSUED:          0  USEFUL:          0  USELESS:          0
LLC AVERAGE MISS LATENCY: 92.4596 cycles
Major fault: 0 Minor fault: 8200
==============================
Perceptron RRIP Stats:
   Num Updates:          1353595
   Num Primary Trains:   1747
   Num Secondary Trains: 2149
==============================
primary_perceptron #0: -1 1 -3 -1 -1 1 -1 -1 -1 3 -1 -1 -5 -5 5 -25 
secondary_perceptron #0: 1 1 -5 1 -1 1 1 -1 -1 5 1 3 -7 -3 7 3 3 1 3 1 -49 


DRAM Statistics
 CHANNEL 0
 RQ ROW_BUFFER_HIT:   12354667  ROW_BUFFER_MISS:   12504750
 DBUS_CONGESTED:   13874485
 WQ ROW_BUFFER_HIT:   11188621  ROW_BUFFER_MISS:    1941454  FULL:         79

 AVG_CONGESTED_CYCLE: 6

CPU 0 Branch Prediction Accuracy: 97.2039% MPKI: 4.75176 Average ROB Occupancy at Mispredict: 41.2781

Branch types
NOT_BRANCH: 830056091 83.0056%
BRANCH_DIRECT_JUMP: 4 4e-07%
BRANCH_INDIRECT: 50 5e-06%
BRANCH_CONDITIONAL: 169943693 16.9944%
BRANCH_DIRECT_CALL: 252 2.52e-05%
BRANCH_INDIRECT_CALL: 0 0%
BRANCH_RETURN: 250 2.5e-05%
BRANCH_OTHER: 0 0%

