
*** ChampSim Multicore Out-of-Order Simulator ***

Warmup Instructions: 100000000
Simulation Instructions: 1000000000
Number of CPUs: 1
LLC sets: 2048
LLC ways: 16
Off-chip DRAM Size: 4096 MB Channels: 1 Width: 64-bit Data Rate: 3200 MT/s

CPU 0 runs /scratch/user/kevin.weston/dpc3-traces/462.champsimtrace.xz
CPU 0 Bimodal branch predictor
Heartbeat CPU 0 instructions: 10000001 cycles: 3821111 heartbeat IPC: 2.61704 cumulative IPC: 2.61704 (Simulation time: 0 hr 0 min 12 sec) 
Heartbeat CPU 0 instructions: 20000001 cycles: 8504542 heartbeat IPC: 2.13519 cumulative IPC: 2.35168 (Simulation time: 0 hr 0 min 35 sec) 
Heartbeat CPU 0 instructions: 30000000 cycles: 12442543 heartbeat IPC: 2.53936 cumulative IPC: 2.41108 (Simulation time: 0 hr 0 min 48 sec) 
Heartbeat CPU 0 instructions: 40000000 cycles: 16073747 heartbeat IPC: 2.75391 cumulative IPC: 2.48853 (Simulation time: 0 hr 0 min 58 sec) 
Heartbeat CPU 0 instructions: 50000002 cycles: 19706988 heartbeat IPC: 2.75236 cumulative IPC: 2.53717 (Simulation time: 0 hr 1 min 7 sec) 
Heartbeat CPU 0 instructions: 60000002 cycles: 23343353 heartbeat IPC: 2.75 cumulative IPC: 2.57032 (Simulation time: 0 hr 1 min 17 sec) 
Heartbeat CPU 0 instructions: 70000002 cycles: 27076485 heartbeat IPC: 2.67872 cumulative IPC: 2.58527 (Simulation time: 0 hr 1 min 28 sec) 
Heartbeat CPU 0 instructions: 80000002 cycles: 31772092 heartbeat IPC: 2.12965 cumulative IPC: 2.51793 (Simulation time: 0 hr 1 min 50 sec) 
Heartbeat CPU 0 instructions: 90000000 cycles: 35804202 heartbeat IPC: 2.48009 cumulative IPC: 2.51367 (Simulation time: 0 hr 2 min 5 sec) 
Heartbeat CPU 0 instructions: 100000000 cycles: 39435406 heartbeat IPC: 2.75391 cumulative IPC: 2.53579 (Simulation time: 0 hr 2 min 14 sec) 

Warmup complete CPU 0 instructions: 100000004 cycles: 39435407 (Simulation time: 0 hr 2 min 14 sec) 

Heartbeat CPU 0 instructions: 110000000 cycles: 55473440 heartbeat IPC: 0.623518 cumulative IPC: 0.623518 (Simulation time: 0 hr 2 min 38 sec) 
Heartbeat CPU 0 instructions: 120000000 cycles: 72614712 heartbeat IPC: 0.583387 cumulative IPC: 0.602785 (Simulation time: 0 hr 3 min 1 sec) 
Heartbeat CPU 0 instructions: 130000000 cycles: 89762528 heartbeat IPC: 0.583165 cumulative IPC: 0.5961 (Simulation time: 0 hr 3 min 24 sec) 
Heartbeat CPU 0 instructions: 140000001 cycles: 114358389 heartbeat IPC: 0.406573 cumulative IPC: 0.533882 (Simulation time: 0 hr 3 min 59 sec) 
Heartbeat CPU 0 instructions: 150000002 cycles: 135719516 heartbeat IPC: 0.46814 cumulative IPC: 0.519296 (Simulation time: 0 hr 4 min 29 sec) 
Heartbeat CPU 0 instructions: 160000003 cycles: 151418380 heartbeat IPC: 0.636989 cumulative IPC: 0.535796 (Simulation time: 0 hr 4 min 53 sec) 
Heartbeat CPU 0 instructions: 170000003 cycles: 167538767 heartbeat IPC: 0.620332 cumulative IPC: 0.546434 (Simulation time: 0 hr 5 min 16 sec) 
Heartbeat CPU 0 instructions: 180000003 cycles: 185813145 heartbeat IPC: 0.547214 cumulative IPC: 0.546531 (Simulation time: 0 hr 5 min 39 sec) 
Heartbeat CPU 0 instructions: 190000003 cycles: 204084010 heartbeat IPC: 0.547319 cumulative IPC: 0.546619 (Simulation time: 0 hr 6 min 2 sec) 
Heartbeat CPU 0 instructions: 200000001 cycles: 228083019 heartbeat IPC: 0.416684 cumulative IPC: 0.530089 (Simulation time: 0 hr 6 min 36 sec) 
Heartbeat CPU 0 instructions: 210000001 cycles: 252235876 heartbeat IPC: 0.41403 cumulative IPC: 0.516916 (Simulation time: 0 hr 7 min 7 sec) 
Heartbeat CPU 0 instructions: 220000000 cycles: 272589875 heartbeat IPC: 0.491304 cumulative IPC: 0.51468 (Simulation time: 0 hr 7 min 29 sec) 
Heartbeat CPU 0 instructions: 230000002 cycles: 293149323 heartbeat IPC: 0.486394 cumulative IPC: 0.512388 (Simulation time: 0 hr 7 min 53 sec) 
Heartbeat CPU 0 instructions: 240000002 cycles: 318397713 heartbeat IPC: 0.396065 cumulative IPC: 0.50186 (Simulation time: 0 hr 8 min 29 sec) 
Heartbeat CPU 0 instructions: 250000003 cycles: 340872916 heartbeat IPC: 0.444935 cumulative IPC: 0.497616 (Simulation time: 0 hr 8 min 57 sec) 
Heartbeat CPU 0 instructions: 260000003 cycles: 359782924 heartbeat IPC: 0.528821 cumulative IPC: 0.499458 (Simulation time: 0 hr 9 min 20 sec) 
Heartbeat CPU 0 instructions: 270000001 cycles: 381743001 heartbeat IPC: 0.455372 cumulative IPC: 0.496629 (Simulation time: 0 hr 9 min 43 sec) 
Heartbeat CPU 0 instructions: 280000001 cycles: 414699524 heartbeat IPC: 0.30343 cumulative IPC: 0.479662 (Simulation time: 0 hr 10 min 7 sec) 
Heartbeat CPU 0 instructions: 290000003 cycles: 447656629 heartbeat IPC: 0.303425 cumulative IPC: 0.465434 (Simulation time: 0 hr 10 min 31 sec) 
Heartbeat CPU 0 instructions: 300000000 cycles: 474624454 heartbeat IPC: 0.370812 cumulative IPC: 0.45957 (Simulation time: 0 hr 11 min 4 sec) 
Heartbeat CPU 0 instructions: 310000001 cycles: 500975955 heartbeat IPC: 0.379485 cumulative IPC: 0.454998 (Simulation time: 0 hr 11 min 36 sec) 
Heartbeat CPU 0 instructions: 320000002 cycles: 526736362 heartbeat IPC: 0.388193 cumulative IPC: 0.451466 (Simulation time: 0 hr 11 min 58 sec) 
Heartbeat CPU 0 instructions: 330000000 cycles: 552494186 heartbeat IPC: 0.388231 cumulative IPC: 0.448292 (Simulation time: 0 hr 12 min 19 sec) 
Heartbeat CPU 0 instructions: 340000002 cycles: 589397724 heartbeat IPC: 0.270977 cumulative IPC: 0.436394 (Simulation time: 0 hr 12 min 43 sec) 
Heartbeat CPU 0 instructions: 350000000 cycles: 628256389 heartbeat IPC: 0.257343 cumulative IPC: 0.424577 (Simulation time: 0 hr 13 min 7 sec) 
Heartbeat CPU 0 instructions: 360000000 cycles: 662143798 heartbeat IPC: 0.295095 cumulative IPC: 0.417531 (Simulation time: 0 hr 13 min 35 sec) 
Heartbeat CPU 0 instructions: 370000000 cycles: 687302664 heartbeat IPC: 0.397474 cumulative IPC: 0.416752 (Simulation time: 0 hr 14 min 10 sec) 
Heartbeat CPU 0 instructions: 380000002 cycles: 725199299 heartbeat IPC: 0.263876 cumulative IPC: 0.408304 (Simulation time: 0 hr 14 min 38 sec) 
Heartbeat CPU 0 instructions: 390000001 cycles: 764587733 heartbeat IPC: 0.253882 cumulative IPC: 0.399916 (Simulation time: 0 hr 15 min 5 sec) 
Heartbeat CPU 0 instructions: 400000001 cycles: 794838044 heartbeat IPC: 0.330575 cumulative IPC: 0.397139 (Simulation time: 0 hr 15 min 37 sec) 
Heartbeat CPU 0 instructions: 410000000 cycles: 822411184 heartbeat IPC: 0.362672 cumulative IPC: 0.395925 (Simulation time: 0 hr 16 min 11 sec) 
Heartbeat CPU 0 instructions: 420000001 cycles: 854532105 heartbeat IPC: 0.311324 cumulative IPC: 0.392591 (Simulation time: 0 hr 16 min 33 sec) 
Heartbeat CPU 0 instructions: 430000001 cycles: 886654009 heartbeat IPC: 0.311314 cumulative IPC: 0.38951 (Simulation time: 0 hr 16 min 55 sec) 
Heartbeat CPU 0 instructions: 440000000 cycles: 921110342 heartbeat IPC: 0.290222 cumulative IPC: 0.38563 (Simulation time: 0 hr 17 min 17 sec) 
Heartbeat CPU 0 instructions: 450000001 cycles: 956419868 heartbeat IPC: 0.28321 cumulative IPC: 0.381686 (Simulation time: 0 hr 17 min 38 sec) 
Heartbeat CPU 0 instructions: 460000000 cycles: 991509586 heartbeat IPC: 0.284984 cumulative IPC: 0.378122 (Simulation time: 0 hr 18 min 0 sec) 
Heartbeat CPU 0 instructions: 470000000 cycles: 1025528830 heartbeat IPC: 0.293951 cumulative IPC: 0.375218 (Simulation time: 0 hr 18 min 23 sec) 
Heartbeat CPU 0 instructions: 480000000 cycles: 1055389843 heartbeat IPC: 0.334885 cumulative IPC: 0.374033 (Simulation time: 0 hr 18 min 51 sec) 
Heartbeat CPU 0 instructions: 490000000 cycles: 1080503317 heartbeat IPC: 0.398193 cumulative IPC: 0.374615 (Simulation time: 0 hr 19 min 27 sec) 
Heartbeat CPU 0 instructions: 500000002 cycles: 1119503512 heartbeat IPC: 0.256409 cumulative IPC: 0.370347 (Simulation time: 0 hr 19 min 54 sec) 
Heartbeat CPU 0 instructions: 510000001 cycles: 1158727485 heartbeat IPC: 0.254946 cumulative IPC: 0.366303 (Simulation time: 0 hr 20 min 21 sec) 
Heartbeat CPU 0 instructions: 520000001 cycles: 1187665639 heartbeat IPC: 0.345565 cumulative IPC: 0.36578 (Simulation time: 0 hr 20 min 54 sec) 
Heartbeat CPU 0 instructions: 530000002 cycles: 1215288615 heartbeat IPC: 0.362018 cumulative IPC: 0.365692 (Simulation time: 0 hr 21 min 27 sec) 
Heartbeat CPU 0 instructions: 540000000 cycles: 1245523976 heartbeat IPC: 0.330739 cumulative IPC: 0.364816 (Simulation time: 0 hr 21 min 49 sec) 
Heartbeat CPU 0 instructions: 550000000 cycles: 1275757574 heartbeat IPC: 0.330758 cumulative IPC: 0.363983 (Simulation time: 0 hr 22 min 11 sec) 
Heartbeat CPU 0 instructions: 560000003 cycles: 1301183808 heartbeat IPC: 0.393295 cumulative IPC: 0.364573 (Simulation time: 0 hr 22 min 45 sec) 
Heartbeat CPU 0 instructions: 570000000 cycles: 1328243096 heartbeat IPC: 0.369559 cumulative IPC: 0.364678 (Simulation time: 0 hr 23 min 15 sec) 
Heartbeat CPU 0 instructions: 580000002 cycles: 1355535078 heartbeat IPC: 0.366408 cumulative IPC: 0.364714 (Simulation time: 0 hr 23 min 38 sec) 
Heartbeat CPU 0 instructions: 590000003 cycles: 1382375571 heartbeat IPC: 0.372571 cumulative IPC: 0.364871 (Simulation time: 0 hr 24 min 0 sec) 
Heartbeat CPU 0 instructions: 600000003 cycles: 1402563793 heartbeat IPC: 0.495338 cumulative IPC: 0.366803 (Simulation time: 0 hr 24 min 23 sec) 
Heartbeat CPU 0 instructions: 610000003 cycles: 1422634003 heartbeat IPC: 0.498251 cumulative IPC: 0.368711 (Simulation time: 0 hr 24 min 45 sec) 
Heartbeat CPU 0 instructions: 620000000 cycles: 1446197317 heartbeat IPC: 0.424388 cumulative IPC: 0.369643 (Simulation time: 0 hr 25 min 17 sec) 
Heartbeat CPU 0 instructions: 630000000 cycles: 1471668893 heartbeat IPC: 0.392594 cumulative IPC: 0.370051 (Simulation time: 0 hr 25 min 50 sec) 
Heartbeat CPU 0 instructions: 640000001 cycles: 1494336053 heartbeat IPC: 0.441167 cumulative IPC: 0.371159 (Simulation time: 0 hr 26 min 12 sec) 
Heartbeat CPU 0 instructions: 650000003 cycles: 1517004266 heartbeat IPC: 0.441146 cumulative IPC: 0.372233 (Simulation time: 0 hr 26 min 35 sec) 
Heartbeat CPU 0 instructions: 660000000 cycles: 1541853623 heartbeat IPC: 0.402425 cumulative IPC: 0.372732 (Simulation time: 0 hr 27 min 10 sec) 
Heartbeat CPU 0 instructions: 670000001 cycles: 1564422757 heartbeat IPC: 0.443083 cumulative IPC: 0.373774 (Simulation time: 0 hr 27 min 40 sec) 
Heartbeat CPU 0 instructions: 680000003 cycles: 1582088200 heartbeat IPC: 0.566077 cumulative IPC: 0.375976 (Simulation time: 0 hr 28 min 2 sec) 
Heartbeat CPU 0 instructions: 690000000 cycles: 1600626386 heartbeat IPC: 0.539427 cumulative IPC: 0.377917 (Simulation time: 0 hr 28 min 27 sec) 
Heartbeat CPU 0 instructions: 700000000 cycles: 1625824065 heartbeat IPC: 0.396862 cumulative IPC: 0.378218 (Simulation time: 0 hr 29 min 2 sec) 
Heartbeat CPU 0 instructions: 710000001 cycles: 1645468460 heartbeat IPC: 0.509051 cumulative IPC: 0.379818 (Simulation time: 0 hr 29 min 30 sec) 
Heartbeat CPU 0 instructions: 720000000 cycles: 1661180262 heartbeat IPC: 0.636464 cumulative IPC: 0.382304 (Simulation time: 0 hr 29 min 53 sec) 
Heartbeat CPU 0 instructions: 730000000 cycles: 1676887077 heartbeat IPC: 0.636666 cumulative IPC: 0.384744 (Simulation time: 0 hr 30 min 17 sec) 
Heartbeat CPU 0 instructions: 740000002 cycles: 1692589699 heartbeat IPC: 0.636836 cumulative IPC: 0.387139 (Simulation time: 0 hr 30 min 40 sec) 
Heartbeat CPU 0 instructions: 750000001 cycles: 1708412808 heartbeat IPC: 0.631987 cumulative IPC: 0.38946 (Simulation time: 0 hr 31 min 4 sec) 
Heartbeat CPU 0 instructions: 760000001 cycles: 1733537732 heartbeat IPC: 0.398011 cumulative IPC: 0.389587 (Simulation time: 0 hr 31 min 40 sec) 
Heartbeat CPU 0 instructions: 770000000 cycles: 1754760090 heartbeat IPC: 0.471201 cumulative IPC: 0.390597 (Simulation time: 0 hr 32 min 11 sec) 
Heartbeat CPU 0 instructions: 780000002 cycles: 1772130281 heartbeat IPC: 0.575699 cumulative IPC: 0.392452 (Simulation time: 0 hr 32 min 39 sec) 
Heartbeat CPU 0 instructions: 790000003 cycles: 1791027865 heartbeat IPC: 0.529168 cumulative IPC: 0.393927 (Simulation time: 0 hr 33 min 8 sec) 
Heartbeat CPU 0 instructions: 800000003 cycles: 1816060479 heartbeat IPC: 0.399479 cumulative IPC: 0.394005 (Simulation time: 0 hr 33 min 44 sec) 
Heartbeat CPU 0 instructions: 810000000 cycles: 1834374922 heartbeat IPC: 0.546017 cumulative IPC: 0.395557 (Simulation time: 0 hr 34 min 10 sec) 
Heartbeat CPU 0 instructions: 820000000 cycles: 1850076855 heartbeat IPC: 0.636864 cumulative IPC: 0.397649 (Simulation time: 0 hr 34 min 33 sec) 
Heartbeat CPU 0 instructions: 830000000 cycles: 1865779640 heartbeat IPC: 0.63683 cumulative IPC: 0.399706 (Simulation time: 0 hr 34 min 57 sec) 
Heartbeat CPU 0 instructions: 840000001 cycles: 1881491894 heartbeat IPC: 0.636446 cumulative IPC: 0.401725 (Simulation time: 0 hr 35 min 20 sec) 
Heartbeat CPU 0 instructions: 850000000 cycles: 1898592044 heartbeat IPC: 0.58479 cumulative IPC: 0.403409 (Simulation time: 0 hr 35 min 45 sec) 
Heartbeat CPU 0 instructions: 860000000 cycles: 1923789296 heartbeat IPC: 0.396869 cumulative IPC: 0.403321 (Simulation time: 0 hr 36 min 21 sec) 
Heartbeat CPU 0 instructions: 870000001 cycles: 1943827075 heartbeat IPC: 0.499057 cumulative IPC: 0.404329 (Simulation time: 0 hr 36 min 51 sec) 
Heartbeat CPU 0 instructions: 880000000 cycles: 1961024600 heartbeat IPC: 0.581479 cumulative IPC: 0.405914 (Simulation time: 0 hr 37 min 18 sec) 
Heartbeat CPU 0 instructions: 890000002 cycles: 1977416756 heartbeat IPC: 0.610048 cumulative IPC: 0.407641 (Simulation time: 0 hr 37 min 44 sec) 
Heartbeat CPU 0 instructions: 900000000 cycles: 1993117647 heartbeat IPC: 0.636906 cumulative IPC: 0.409483 (Simulation time: 0 hr 38 min 7 sec) 
Heartbeat CPU 0 instructions: 910000001 cycles: 2009425309 heartbeat IPC: 0.613209 cumulative IPC: 0.41117 (Simulation time: 0 hr 38 min 31 sec) 
Heartbeat CPU 0 instructions: 920000001 cycles: 2034553929 heartbeat IPC: 0.397953 cumulative IPC: 0.411003 (Simulation time: 0 hr 39 min 7 sec) 
Heartbeat CPU 0 instructions: 930000000 cycles: 2055029611 heartbeat IPC: 0.488384 cumulative IPC: 0.411789 (Simulation time: 0 hr 39 min 37 sec) 
Heartbeat CPU 0 instructions: 940000002 cycles: 2071872140 heartbeat IPC: 0.593735 cumulative IPC: 0.413297 (Simulation time: 0 hr 40 min 5 sec) 
Heartbeat CPU 0 instructions: 950000003 cycles: 2090826119 heartbeat IPC: 0.527594 cumulative IPC: 0.414353 (Simulation time: 0 hr 40 min 34 sec) 
Heartbeat CPU 0 instructions: 960000003 cycles: 2115846038 heartbeat IPC: 0.399682 cumulative IPC: 0.414176 (Simulation time: 0 hr 41 min 9 sec) 
Heartbeat CPU 0 instructions: 970000002 cycles: 2134746083 heartbeat IPC: 0.529099 cumulative IPC: 0.415213 (Simulation time: 0 hr 41 min 38 sec) 
Heartbeat CPU 0 instructions: 980000002 cycles: 2151940065 heartbeat IPC: 0.581599 cumulative IPC: 0.416567 (Simulation time: 0 hr 42 min 5 sec) 
Heartbeat CPU 0 instructions: 990000000 cycles: 2178629017 heartbeat IPC: 0.374687 cumulative IPC: 0.416045 (Simulation time: 0 hr 42 min 29 sec) 
Heartbeat CPU 0 instructions: 1000000002 cycles: 2213491652 heartbeat IPC: 0.28684 cumulative IPC: 0.413973 (Simulation time: 0 hr 42 min 51 sec) 
Heartbeat CPU 0 instructions: 1010000001 cycles: 2244998336 heartbeat IPC: 0.317393 cumulative IPC: 0.412593 (Simulation time: 0 hr 43 min 14 sec) 
Heartbeat CPU 0 instructions: 1020000001 cycles: 2261812254 heartbeat IPC: 0.594745 cumulative IPC: 0.413971 (Simulation time: 0 hr 43 min 41 sec) 
Heartbeat CPU 0 instructions: 1030000001 cycles: 2278626572 heartbeat IPC: 0.594731 cumulative IPC: 0.415329 (Simulation time: 0 hr 44 min 8 sec) 
Heartbeat CPU 0 instructions: 1040000002 cycles: 2302084525 heartbeat IPC: 0.426295 cumulative IPC: 0.415442 (Simulation time: 0 hr 44 min 42 sec) 
Heartbeat CPU 0 instructions: 1050000002 cycles: 2323894761 heartbeat IPC: 0.4585 cumulative IPC: 0.415853 (Simulation time: 0 hr 45 min 14 sec) 
Heartbeat CPU 0 instructions: 1060000002 cycles: 2338391224 heartbeat IPC: 0.689823 cumulative IPC: 0.417581 (Simulation time: 0 hr 45 min 38 sec) 
Heartbeat CPU 0 instructions: 1070000003 cycles: 2353387579 heartbeat IPC: 0.666829 cumulative IPC: 0.419196 (Simulation time: 0 hr 46 min 3 sec) 
Heartbeat CPU 0 instructions: 1080000003 cycles: 2378409921 heartbeat IPC: 0.399643 cumulative IPC: 0.418987 (Simulation time: 0 hr 46 min 38 sec) 
Heartbeat CPU 0 instructions: 1090000002 cycles: 2398469073 heartbeat IPC: 0.498526 cumulative IPC: 0.419663 (Simulation time: 0 hr 47 min 7 sec) 
Heartbeat CPU 0 instructions: 1100000000 cycles: 2414168791 heartbeat IPC: 0.636954 cumulative IPC: 0.4211 (Simulation time: 0 hr 47 min 30 sec) 
Finished CPU 0 instructions: 1000000002 cycles: 2374733401 cumulative IPC: 0.4211 (Simulation time: 0 hr 47 min 30 sec) 

ChampSim completed all CPUs

Region of Interest Statistics

CPU 0 cumulative IPC: 0.4211 instructions: 1000000002 cycles: 2374733401
L1D TOTAL     ACCESS:  142938081  HIT:  116714044  MISS:   26224037
L1D LOAD      ACCESS:   94030843  HIT:   67806992  MISS:   26223851
L1D RFO       ACCESS:   48907238  HIT:   48907052  MISS:        186
L1D PREFETCH  ACCESS:          0  HIT:          0  MISS:          0
L1D WRITEBACK ACCESS:          0  HIT:          0  MISS:          0
L1D PREFETCH  REQUESTED:          0  ISSUED:          0  USEFUL:          0  USELESS:          0
L1D AVERAGE MISS LATENCY: 200.196 cycles
L1I TOTAL     ACCESS:  220675766  HIT:  220675750  MISS:         16
L1I LOAD      ACCESS:  220675766  HIT:  220675750  MISS:         16
L1I RFO       ACCESS:          0  HIT:          0  MISS:          0
L1I PREFETCH  ACCESS:          0  HIT:          0  MISS:          0
L1I WRITEBACK ACCESS:          0  HIT:          0  MISS:          0
L1I PREFETCH  REQUESTED:          0  ISSUED:          0  USEFUL:          0  USELESS:          0
L1I AVERAGE MISS LATENCY: 230.5 cycles
L2C TOTAL     ACCESS:   40036375  HIT:   13812322  MISS:   26224053
L2C LOAD      ACCESS:   26223867  HIT:          0  MISS:   26223867
L2C RFO       ACCESS:        186  HIT:          0  MISS:        186
L2C PREFETCH  ACCESS:          0  HIT:          0  MISS:          0
L2C WRITEBACK ACCESS:   13812322  HIT:   13812322  MISS:          0
L2C PREFETCH  REQUESTED:          0  ISSUED:          0  USEFUL:          0  USELESS:          0
L2C AVERAGE MISS LATENCY: 187.781 cycles
LLC TOTAL     ACCESS:   40036375  HIT:   13812322  MISS:   26224053
LLC LOAD      ACCESS:   26223867  HIT:          0  MISS:   26223867
LLC RFO       ACCESS:        186  HIT:          0  MISS:        186
LLC PREFETCH  ACCESS:          0  HIT:          0  MISS:          0
LLC WRITEBACK ACCESS:   13812322  HIT:   13812322  MISS:          0
LLC PREFETCH  REQUESTED:          0  ISSUED:          0  USEFUL:          0  USELESS:          0
LLC AVERAGE MISS LATENCY: 147.384 cycles
Major fault: 0 Minor fault: 8200

DRAM Statistics
 CHANNEL 0
 RQ ROW_BUFFER_HIT:   11280940  ROW_BUFFER_MISS:   14943113
 DBUS_CONGESTED:   14581452
 WQ ROW_BUFFER_HIT:   11912904  ROW_BUFFER_MISS:    1899418  FULL:          0

 AVG_CONGESTED_CYCLE: 6

CPU 0 Branch Prediction Accuracy: 97.2039% MPKI: 4.75176 Average ROB Occupancy at Mispredict: 42.1867

Branch types
NOT_BRANCH: 830056091 83.0056%
BRANCH_DIRECT_JUMP: 4 4e-07%
BRANCH_INDIRECT: 50 5e-06%
BRANCH_CONDITIONAL: 169943693 16.9944%
BRANCH_DIRECT_CALL: 252 2.52e-05%
BRANCH_INDIRECT_CALL: 0 0%
BRANCH_RETURN: 250 2.5e-05%
BRANCH_OTHER: 0 0%

