
*** ChampSim Multicore Out-of-Order Simulator ***

Warmup Instructions: 100000000
Simulation Instructions: 1000000000
Number of CPUs: 1
LLC sets: 2048
LLC ways: 16
Off-chip DRAM Size: 4096 MB Channels: 1 Width: 64-bit Data Rate: 3200 MT/s

CPU 0 runs /scratch/user/kevin.weston/dpc3-traces/470.champsimtrace.xz
CPU 0 Bimodal branch predictor
Per-line RRPV Initialized
PRRIP State Initialized
Assign SAMPLER_SET[0]: 454  LLC: 2048
SAMPLER_SET[0]: 454
Assign SAMPLER_SET[1]: 1662  LLC: 2048
SAMPLER_SET[1]: 1662
Assign SAMPLER_SET[2]: 1921  LLC: 2048
SAMPLER_SET[2]: 1921
Assign SAMPLER_SET[3]: 1131  LLC: 2048
SAMPLER_SET[3]: 1131
Assign SAMPLER_SET[4]: 331  LLC: 2048
SAMPLER_SET[4]: 331
Assign SAMPLER_SET[5]: 1531  LLC: 2048
SAMPLER_SET[5]: 1531
Assign SAMPLER_SET[6]: 482  LLC: 2048
SAMPLER_SET[6]: 482
Assign SAMPLER_SET[7]: 1275  LLC: 2048
SAMPLER_SET[7]: 1275
Assign SAMPLER_SET[8]: 1876  LLC: 2048
SAMPLER_SET[8]: 1876
Assign SAMPLER_SET[9]: 2038  LLC: 2048
SAMPLER_SET[9]: 2038
Assign SAMPLER_SET[10]: 701  LLC: 2048
SAMPLER_SET[10]: 701
Assign SAMPLER_SET[11]: 479  LLC: 2048
SAMPLER_SET[11]: 479
Assign SAMPLER_SET[12]: 892  LLC: 2048
SAMPLER_SET[12]: 892
Assign SAMPLER_SET[13]: 1820  LLC: 2048
SAMPLER_SET[13]: 1820
Assign SAMPLER_SET[14]: 1505  LLC: 2048
SAMPLER_SET[14]: 1505
Assign SAMPLER_SET[15]: 1159  LLC: 2048
SAMPLER_SET[15]: 1159
Assign SAMPLER_SET[16]: 513  LLC: 2048
SAMPLER_SET[16]: 513
Assign SAMPLER_SET[17]: 703  LLC: 2048
SAMPLER_SET[17]: 703
Assign SAMPLER_SET[18]: 561  LLC: 2048
SAMPLER_SET[18]: 561
Assign SAMPLER_SET[19]: 990  LLC: 2048
SAMPLER_SET[19]: 990
Assign SAMPLER_SET[20]: 342  LLC: 2048
SAMPLER_SET[20]: 342
Assign SAMPLER_SET[21]: 882  LLC: 2048
SAMPLER_SET[21]: 882
Assign SAMPLER_SET[22]: 15  LLC: 2048
SAMPLER_SET[22]: 15
Assign SAMPLER_SET[23]: 71  LLC: 2048
SAMPLER_SET[23]: 71
Assign SAMPLER_SET[24]: 1127  LLC: 2048
SAMPLER_SET[24]: 1127
Assign SAMPLER_SET[25]: 1382  LLC: 2048
SAMPLER_SET[25]: 1382
Assign SAMPLER_SET[26]: 647  LLC: 2048
SAMPLER_SET[26]: 647
Assign SAMPLER_SET[27]: 857  LLC: 2048
SAMPLER_SET[27]: 857
Assign SAMPLER_SET[28]: 1450  LLC: 2048
SAMPLER_SET[28]: 1450
Assign SAMPLER_SET[29]: 1160  LLC: 2048
SAMPLER_SET[29]: 1160
Assign SAMPLER_SET[30]: 1852  LLC: 2048
SAMPLER_SET[30]: 1852
Assign SAMPLER_SET[31]: 1881  LLC: 2048
SAMPLER_SET[31]: 1881
Assign SAMPLER_SET[32]: 1770  LLC: 2048
SAMPLER_SET[32]: 1770
Assign SAMPLER_SET[33]: 1622  LLC: 2048
SAMPLER_SET[33]: 1622
Assign SAMPLER_SET[34]: 275  LLC: 2048
SAMPLER_SET[34]: 275
Assign SAMPLER_SET[35]: 635  LLC: 2048
SAMPLER_SET[35]: 635
Assign SAMPLER_SET[36]: 466  LLC: 2048
SAMPLER_SET[36]: 466
Assign SAMPLER_SET[37]: 1413  LLC: 2048
SAMPLER_SET[37]: 1413
Assign SAMPLER_SET[38]: 417  LLC: 2048
SAMPLER_SET[38]: 417
Assign SAMPLER_SET[39]: 472  LLC: 2048
SAMPLER_SET[39]: 472
Assign SAMPLER_SET[40]: 1340  LLC: 2048
SAMPLER_SET[40]: 1340
Assign SAMPLER_SET[41]: 852  LLC: 2048
SAMPLER_SET[41]: 852
Assign SAMPLER_SET[42]: 1365  LLC: 2048
SAMPLER_SET[42]: 1365
Assign SAMPLER_SET[43]: 47  LLC: 2048
SAMPLER_SET[43]: 47
Assign SAMPLER_SET[44]: 823  LLC: 2048
SAMPLER_SET[44]: 823
Assign SAMPLER_SET[45]: 686  LLC: 2048
SAMPLER_SET[45]: 686
Assign SAMPLER_SET[46]: 1637  LLC: 2048
SAMPLER_SET[46]: 1637
Assign SAMPLER_SET[47]: 1115  LLC: 2048
SAMPLER_SET[47]: 1115
Assign SAMPLER_SET[48]: 986  LLC: 2048
SAMPLER_SET[48]: 986
Assign SAMPLER_SET[49]: 258  LLC: 2048
SAMPLER_SET[49]: 258
Assign SAMPLER_SET[50]: 633  LLC: 2048
SAMPLER_SET[50]: 633
Assign SAMPLER_SET[51]: 920  LLC: 2048
SAMPLER_SET[51]: 920
Assign SAMPLER_SET[52]: 204  LLC: 2048
SAMPLER_SET[52]: 204
Assign SAMPLER_SET[53]: 227  LLC: 2048
SAMPLER_SET[53]: 227
Assign SAMPLER_SET[54]: 1818  LLC: 2048
SAMPLER_SET[54]: 1818
Assign SAMPLER_SET[55]: 886  LLC: 2048
SAMPLER_SET[55]: 886
Assign SAMPLER_SET[56]: 1422  LLC: 2048
SAMPLER_SET[56]: 1422
Assign SAMPLER_SET[57]: 607  LLC: 2048
SAMPLER_SET[57]: 607
Assign SAMPLER_SET[58]: 217  LLC: 2048
SAMPLER_SET[58]: 217
Assign SAMPLER_SET[59]: 1945  LLC: 2048
SAMPLER_SET[59]: 1945
Assign SAMPLER_SET[60]: 143  LLC: 2048
SAMPLER_SET[60]: 143
Assign SAMPLER_SET[61]: 1311  LLC: 2048
SAMPLER_SET[61]: 1311
Assign SAMPLER_SET[62]: 319  LLC: 2048
SAMPLER_SET[62]: 319
Assign SAMPLER_SET[63]: 1846  LLC: 2048
SAMPLER_SET[63]: 1846
Heartbeat CPU 0 instructions: 10000000 cycles: 3152202 heartbeat IPC: 3.17239 cumulative IPC: 3.17239 (Simulation time: 0 hr 0 min 21 sec) 
Heartbeat CPU 0 instructions: 20000000 cycles: 6302288 heartbeat IPC: 3.17452 cumulative IPC: 3.17345 (Simulation time: 0 hr 0 min 41 sec) 
Heartbeat CPU 0 instructions: 30000000 cycles: 9454328 heartbeat IPC: 3.17255 cumulative IPC: 3.17315 (Simulation time: 0 hr 1 min 2 sec) 
Heartbeat CPU 0 instructions: 40000000 cycles: 12606441 heartbeat IPC: 3.17248 cumulative IPC: 3.17298 (Simulation time: 0 hr 1 min 23 sec) 
Heartbeat CPU 0 instructions: 50000001 cycles: 15758391 heartbeat IPC: 3.17264 cumulative IPC: 3.17291 (Simulation time: 0 hr 1 min 44 sec) 
Heartbeat CPU 0 instructions: 60000003 cycles: 18910275 heartbeat IPC: 3.17271 cumulative IPC: 3.17288 (Simulation time: 0 hr 2 min 4 sec) 
Heartbeat CPU 0 instructions: 70000002 cycles: 22062326 heartbeat IPC: 3.17254 cumulative IPC: 3.17283 (Simulation time: 0 hr 2 min 25 sec) 
Heartbeat CPU 0 instructions: 80000001 cycles: 25212558 heartbeat IPC: 3.17437 cumulative IPC: 3.17302 (Simulation time: 0 hr 2 min 46 sec) 
Heartbeat CPU 0 instructions: 90000000 cycles: 28364453 heartbeat IPC: 3.17269 cumulative IPC: 3.17299 (Simulation time: 0 hr 3 min 7 sec) 
Heartbeat CPU 0 instructions: 100000002 cycles: 31516555 heartbeat IPC: 3.17249 cumulative IPC: 3.17294 (Simulation time: 0 hr 3 min 28 sec) 

Warmup complete CPU 0 instructions: 100000002 cycles: 31516555 (Simulation time: 0 hr 3 min 28 sec) 

Heartbeat CPU 0 instructions: 110000000 cycles: 47319006 heartbeat IPC: 0.632813 cumulative IPC: 0.632813 (Simulation time: 0 hr 3 min 58 sec) 
Heartbeat CPU 0 instructions: 120000002 cycles: 62975071 heartbeat IPC: 0.63873 cumulative IPC: 0.635758 (Simulation time: 0 hr 4 min 28 sec) 
Heartbeat CPU 0 instructions: 130000000 cycles: 78431122 heartbeat IPC: 0.646996 cumulative IPC: 0.63946 (Simulation time: 0 hr 4 min 58 sec) 
Heartbeat CPU 0 instructions: 140000001 cycles: 94050636 heartbeat IPC: 0.640225 cumulative IPC: 0.639651 (Simulation time: 0 hr 5 min 28 sec) 
Heartbeat CPU 0 instructions: 150000002 cycles: 109828298 heartbeat IPC: 0.633808 cumulative IPC: 0.638474 (Simulation time: 0 hr 5 min 59 sec) 
Heartbeat CPU 0 instructions: 160000000 cycles: 125718224 heartbeat IPC: 0.629329 cumulative IPC: 0.636931 (Simulation time: 0 hr 6 min 29 sec) 
Heartbeat CPU 0 instructions: 170000001 cycles: 141458750 heartbeat IPC: 0.635303 cumulative IPC: 0.636698 (Simulation time: 0 hr 7 min 0 sec) 
Heartbeat CPU 0 instructions: 180000002 cycles: 157292371 heartbeat IPC: 0.631568 cumulative IPC: 0.636052 (Simulation time: 0 hr 7 min 30 sec) 
Heartbeat CPU 0 instructions: 190000002 cycles: 172910236 heartbeat IPC: 0.640292 cumulative IPC: 0.636521 (Simulation time: 0 hr 8 min 0 sec) 
Heartbeat CPU 0 instructions: 200000003 cycles: 188234400 heartbeat IPC: 0.652564 cumulative IPC: 0.638089 (Simulation time: 0 hr 8 min 31 sec) 
Heartbeat CPU 0 instructions: 210000000 cycles: 204196261 heartbeat IPC: 0.626493 cumulative IPC: 0.637018 (Simulation time: 0 hr 9 min 1 sec) 
Heartbeat CPU 0 instructions: 220000000 cycles: 220195598 heartbeat IPC: 0.625026 cumulative IPC: 0.636001 (Simulation time: 0 hr 9 min 32 sec) 
Heartbeat CPU 0 instructions: 230000003 cycles: 235782122 heartbeat IPC: 0.64158 cumulative IPC: 0.636426 (Simulation time: 0 hr 10 min 2 sec) 
Heartbeat CPU 0 instructions: 240000003 cycles: 251852056 heartbeat IPC: 0.62228 cumulative IPC: 0.635395 (Simulation time: 0 hr 10 min 33 sec) 
Heartbeat CPU 0 instructions: 250000003 cycles: 267736103 heartbeat IPC: 0.629562 cumulative IPC: 0.635002 (Simulation time: 0 hr 11 min 3 sec) 
Heartbeat CPU 0 instructions: 260000000 cycles: 283502303 heartbeat IPC: 0.634268 cumulative IPC: 0.634957 (Simulation time: 0 hr 11 min 34 sec) 
Heartbeat CPU 0 instructions: 270000003 cycles: 309933276 heartbeat IPC: 0.378344 cumulative IPC: 0.610596 (Simulation time: 0 hr 12 min 17 sec) 
Heartbeat CPU 0 instructions: 280000000 cycles: 325744711 heartbeat IPC: 0.632454 cumulative IPC: 0.61177 (Simulation time: 0 hr 12 min 47 sec) 
Heartbeat CPU 0 instructions: 290000002 cycles: 341362014 heartbeat IPC: 0.640316 cumulative IPC: 0.613209 (Simulation time: 0 hr 13 min 17 sec) 
Heartbeat CPU 0 instructions: 300000000 cycles: 357039361 heartbeat IPC: 0.637863 cumulative IPC: 0.614396 (Simulation time: 0 hr 13 min 48 sec) 
Heartbeat CPU 0 instructions: 310000003 cycles: 373323016 heartbeat IPC: 0.614113 cumulative IPC: 0.614383 (Simulation time: 0 hr 14 min 19 sec) 
Heartbeat CPU 0 instructions: 320000000 cycles: 389905448 heartbeat IPC: 0.603048 cumulative IPC: 0.613858 (Simulation time: 0 hr 14 min 50 sec) 
Heartbeat CPU 0 instructions: 330000000 cycles: 406685869 heartbeat IPC: 0.595933 cumulative IPC: 0.613057 (Simulation time: 0 hr 15 min 22 sec) 
Heartbeat CPU 0 instructions: 340000000 cycles: 423649617 heartbeat IPC: 0.589492 cumulative IPC: 0.612037 (Simulation time: 0 hr 15 min 54 sec) 
Heartbeat CPU 0 instructions: 350000000 cycles: 440741729 heartbeat IPC: 0.585065 cumulative IPC: 0.610911 (Simulation time: 0 hr 16 min 25 sec) 
Heartbeat CPU 0 instructions: 360000000 cycles: 458345700 heartbeat IPC: 0.568054 cumulative IPC: 0.609143 (Simulation time: 0 hr 16 min 58 sec) 
Heartbeat CPU 0 instructions: 370000001 cycles: 475667489 heartbeat IPC: 0.577308 cumulative IPC: 0.607901 (Simulation time: 0 hr 17 min 30 sec) 
Heartbeat CPU 0 instructions: 380000001 cycles: 493069838 heartbeat IPC: 0.574635 cumulative IPC: 0.606647 (Simulation time: 0 hr 18 min 2 sec) 
Heartbeat CPU 0 instructions: 390000000 cycles: 509890042 heartbeat IPC: 0.594523 cumulative IPC: 0.606221 (Simulation time: 0 hr 18 min 34 sec) 
Heartbeat CPU 0 instructions: 400000001 cycles: 526903945 heartbeat IPC: 0.587755 cumulative IPC: 0.605587 (Simulation time: 0 hr 19 min 6 sec) 
Heartbeat CPU 0 instructions: 410000003 cycles: 543580334 heartbeat IPC: 0.59965 cumulative IPC: 0.605393 (Simulation time: 0 hr 19 min 37 sec) 
Heartbeat CPU 0 instructions: 420000003 cycles: 559717346 heartbeat IPC: 0.619693 cumulative IPC: 0.60583 (Simulation time: 0 hr 20 min 8 sec) 
Heartbeat CPU 0 instructions: 430000001 cycles: 575601439 heartbeat IPC: 0.629561 cumulative IPC: 0.606523 (Simulation time: 0 hr 20 min 38 sec) 
Heartbeat CPU 0 instructions: 440000000 cycles: 592137042 heartbeat IPC: 0.604756 cumulative IPC: 0.606471 (Simulation time: 0 hr 21 min 10 sec) 
Heartbeat CPU 0 instructions: 450000001 cycles: 608381985 heartbeat IPC: 0.615576 cumulative IPC: 0.606727 (Simulation time: 0 hr 21 min 41 sec) 
Heartbeat CPU 0 instructions: 460000001 cycles: 624703061 heartbeat IPC: 0.612705 cumulative IPC: 0.606892 (Simulation time: 0 hr 22 min 12 sec) 
Heartbeat CPU 0 instructions: 470000000 cycles: 640562070 heartbeat IPC: 0.630556 cumulative IPC: 0.607508 (Simulation time: 0 hr 22 min 43 sec) 
Heartbeat CPU 0 instructions: 480000001 cycles: 656767705 heartbeat IPC: 0.617069 cumulative IPC: 0.607756 (Simulation time: 0 hr 23 min 14 sec) 
Heartbeat CPU 0 instructions: 490000000 cycles: 673106603 heartbeat IPC: 0.612036 cumulative IPC: 0.607865 (Simulation time: 0 hr 23 min 45 sec) 
Heartbeat CPU 0 instructions: 500000000 cycles: 689158228 heartbeat IPC: 0.62299 cumulative IPC: 0.608234 (Simulation time: 0 hr 24 min 16 sec) 
Heartbeat CPU 0 instructions: 510000001 cycles: 705241422 heartbeat IPC: 0.621767 cumulative IPC: 0.608557 (Simulation time: 0 hr 24 min 48 sec) 
Heartbeat CPU 0 instructions: 520000002 cycles: 721077727 heartbeat IPC: 0.63146 cumulative IPC: 0.609083 (Simulation time: 0 hr 25 min 20 sec) 
Heartbeat CPU 0 instructions: 530000000 cycles: 736891983 heartbeat IPC: 0.632341 cumulative IPC: 0.609604 (Simulation time: 0 hr 25 min 52 sec) 
Heartbeat CPU 0 instructions: 540000001 cycles: 753137490 heartbeat IPC: 0.615555 cumulative IPC: 0.609738 (Simulation time: 0 hr 26 min 24 sec) 
Heartbeat CPU 0 instructions: 550000000 cycles: 769534872 heartbeat IPC: 0.609853 cumulative IPC: 0.609741 (Simulation time: 0 hr 26 min 57 sec) 
Heartbeat CPU 0 instructions: 560000003 cycles: 785464247 heartbeat IPC: 0.627771 cumulative IPC: 0.610122 (Simulation time: 0 hr 27 min 28 sec) 
Heartbeat CPU 0 instructions: 570000001 cycles: 801287064 heartbeat IPC: 0.631999 cumulative IPC: 0.610572 (Simulation time: 0 hr 28 min 0 sec) 
Heartbeat CPU 0 instructions: 580000001 cycles: 817483258 heartbeat IPC: 0.617429 cumulative IPC: 0.610713 (Simulation time: 0 hr 28 min 31 sec) 
Heartbeat CPU 0 instructions: 590000001 cycles: 833658435 heartbeat IPC: 0.618231 cumulative IPC: 0.610865 (Simulation time: 0 hr 29 min 3 sec) 
Heartbeat CPU 0 instructions: 600000001 cycles: 849679059 heartbeat IPC: 0.624195 cumulative IPC: 0.611126 (Simulation time: 0 hr 29 min 35 sec) 
Heartbeat CPU 0 instructions: 610000001 cycles: 865916570 heartbeat IPC: 0.615858 cumulative IPC: 0.611218 (Simulation time: 0 hr 30 min 7 sec) 
Heartbeat CPU 0 instructions: 620000000 cycles: 882184135 heartbeat IPC: 0.61472 cumulative IPC: 0.611285 (Simulation time: 0 hr 30 min 39 sec) 
Heartbeat CPU 0 instructions: 630000000 cycles: 898223749 heartbeat IPC: 0.623456 cumulative IPC: 0.61151 (Simulation time: 0 hr 31 min 10 sec) 
Heartbeat CPU 0 instructions: 640000000 cycles: 914367646 heartbeat IPC: 0.619429 cumulative IPC: 0.611655 (Simulation time: 0 hr 31 min 42 sec) 
Heartbeat CPU 0 instructions: 650000002 cycles: 930439961 heartbeat IPC: 0.622188 cumulative IPC: 0.611843 (Simulation time: 0 hr 32 min 14 sec) 
Heartbeat CPU 0 instructions: 660000000 cycles: 946362628 heartbeat IPC: 0.628035 cumulative IPC: 0.612125 (Simulation time: 0 hr 32 min 45 sec) 
Heartbeat CPU 0 instructions: 670000000 cycles: 962410826 heartbeat IPC: 0.623123 cumulative IPC: 0.612314 (Simulation time: 0 hr 33 min 16 sec) 
Heartbeat CPU 0 instructions: 680000001 cycles: 978629581 heartbeat IPC: 0.61657 cumulative IPC: 0.612387 (Simulation time: 0 hr 33 min 48 sec) 
Heartbeat CPU 0 instructions: 690000001 cycles: 995030417 heartbeat IPC: 0.609725 cumulative IPC: 0.612342 (Simulation time: 0 hr 34 min 21 sec) 
Heartbeat CPU 0 instructions: 700000000 cycles: 1011953424 heartbeat IPC: 0.590911 cumulative IPC: 0.611972 (Simulation time: 0 hr 34 min 53 sec) 
Heartbeat CPU 0 instructions: 710000001 cycles: 1038586868 heartbeat IPC: 0.375468 cumulative IPC: 0.605717 (Simulation time: 0 hr 35 min 37 sec) 
Heartbeat CPU 0 instructions: 720000002 cycles: 1054485523 heartbeat IPC: 0.628984 cumulative IPC: 0.606079 (Simulation time: 0 hr 36 min 9 sec) 
Heartbeat CPU 0 instructions: 730000000 cycles: 1070404747 heartbeat IPC: 0.628171 cumulative IPC: 0.606418 (Simulation time: 0 hr 36 min 40 sec) 
Heartbeat CPU 0 instructions: 740000002 cycles: 1086570169 heartbeat IPC: 0.618604 cumulative IPC: 0.606604 (Simulation time: 0 hr 37 min 12 sec) 
Heartbeat CPU 0 instructions: 750000001 cycles: 1102793647 heartbeat IPC: 0.616391 cumulative IPC: 0.606752 (Simulation time: 0 hr 37 min 43 sec) 
Heartbeat CPU 0 instructions: 760000003 cycles: 1120116434 heartbeat IPC: 0.577274 cumulative IPC: 0.606283 (Simulation time: 0 hr 38 min 16 sec) 
Heartbeat CPU 0 instructions: 770000000 cycles: 1137224287 heartbeat IPC: 0.584527 cumulative IPC: 0.605947 (Simulation time: 0 hr 38 min 49 sec) 
Heartbeat CPU 0 instructions: 780000000 cycles: 1155164225 heartbeat IPC: 0.557416 cumulative IPC: 0.605172 (Simulation time: 0 hr 39 min 22 sec) 
Heartbeat CPU 0 instructions: 790000000 cycles: 1172923377 heartbeat IPC: 0.56309 cumulative IPC: 0.604517 (Simulation time: 0 hr 39 min 55 sec) 
Heartbeat CPU 0 instructions: 800000002 cycles: 1190419921 heartbeat IPC: 0.571542 cumulative IPC: 0.604019 (Simulation time: 0 hr 40 min 28 sec) 
Heartbeat CPU 0 instructions: 810000001 cycles: 1208209052 heartbeat IPC: 0.562141 cumulative IPC: 0.603386 (Simulation time: 0 hr 41 min 2 sec) 
Heartbeat CPU 0 instructions: 820000002 cycles: 1225800538 heartbeat IPC: 0.568457 cumulative IPC: 0.602872 (Simulation time: 0 hr 41 min 35 sec) 
Heartbeat CPU 0 instructions: 830000003 cycles: 1242810862 heartbeat IPC: 0.587878 cumulative IPC: 0.602661 (Simulation time: 0 hr 42 min 8 sec) 
Heartbeat CPU 0 instructions: 840000003 cycles: 1260221769 heartbeat IPC: 0.574353 cumulative IPC: 0.60226 (Simulation time: 0 hr 42 min 41 sec) 
Heartbeat CPU 0 instructions: 850000003 cycles: 1277159411 heartbeat IPC: 0.590401 cumulative IPC: 0.602099 (Simulation time: 0 hr 43 min 14 sec) 
Heartbeat CPU 0 instructions: 860000000 cycles: 1293670682 heartbeat IPC: 0.605647 cumulative IPC: 0.602145 (Simulation time: 0 hr 43 min 46 sec) 
Heartbeat CPU 0 instructions: 870000000 cycles: 1309891967 heartbeat IPC: 0.616474 cumulative IPC: 0.602327 (Simulation time: 0 hr 44 min 17 sec) 
Heartbeat CPU 0 instructions: 880000000 cycles: 1324691178 heartbeat IPC: 0.675712 cumulative IPC: 0.603167 (Simulation time: 0 hr 44 min 47 sec) 
Heartbeat CPU 0 instructions: 890000000 cycles: 1340298055 heartbeat IPC: 0.640743 cumulative IPC: 0.603615 (Simulation time: 0 hr 45 min 18 sec) 
Heartbeat CPU 0 instructions: 900000003 cycles: 1356327903 heartbeat IPC: 0.623836 cumulative IPC: 0.60386 (Simulation time: 0 hr 45 min 49 sec) 
Heartbeat CPU 0 instructions: 910000002 cycles: 1372436865 heartbeat IPC: 0.620772 cumulative IPC: 0.604063 (Simulation time: 0 hr 46 min 21 sec) 
Heartbeat CPU 0 instructions: 920000002 cycles: 1387854370 heartbeat IPC: 0.648613 cumulative IPC: 0.604569 (Simulation time: 0 hr 46 min 52 sec) 
Heartbeat CPU 0 instructions: 930000001 cycles: 1403716037 heartbeat IPC: 0.630451 cumulative IPC: 0.604868 (Simulation time: 0 hr 47 min 23 sec) 
Heartbeat CPU 0 instructions: 940000003 cycles: 1419259134 heartbeat IPC: 0.643373 cumulative IPC: 0.6053 (Simulation time: 0 hr 47 min 54 sec) 
Heartbeat CPU 0 instructions: 950000003 cycles: 1434856226 heartbeat IPC: 0.641145 cumulative IPC: 0.605698 (Simulation time: 0 hr 48 min 25 sec) 
Heartbeat CPU 0 instructions: 960000003 cycles: 1450260156 heartbeat IPC: 0.649185 cumulative IPC: 0.60617 (Simulation time: 0 hr 48 min 56 sec) 
Heartbeat CPU 0 instructions: 970000000 cycles: 1466130705 heartbeat IPC: 0.630098 cumulative IPC: 0.606435 (Simulation time: 0 hr 49 min 27 sec) 
Heartbeat CPU 0 instructions: 980000000 cycles: 1481854316 heartbeat IPC: 0.635986 cumulative IPC: 0.606755 (Simulation time: 0 hr 49 min 58 sec) 
Heartbeat CPU 0 instructions: 990000000 cycles: 1497601075 heartbeat IPC: 0.635051 cumulative IPC: 0.607059 (Simulation time: 0 hr 50 min 28 sec) 
Heartbeat CPU 0 instructions: 1000000003 cycles: 1513485839 heartbeat IPC: 0.629534 cumulative IPC: 0.6073 (Simulation time: 0 hr 51 min 0 sec) 
Heartbeat CPU 0 instructions: 1010000000 cycles: 1529222834 heartbeat IPC: 0.635445 cumulative IPC: 0.607596 (Simulation time: 0 hr 51 min 31 sec) 
Heartbeat CPU 0 instructions: 1020000000 cycles: 1544596374 heartbeat IPC: 0.650468 cumulative IPC: 0.608031 (Simulation time: 0 hr 52 min 1 sec) 
Heartbeat CPU 0 instructions: 1030000002 cycles: 1560566002 heartbeat IPC: 0.626189 cumulative IPC: 0.608221 (Simulation time: 0 hr 52 min 32 sec) 
Heartbeat CPU 0 instructions: 1040000003 cycles: 1576389134 heartbeat IPC: 0.631986 cumulative IPC: 0.608464 (Simulation time: 0 hr 53 min 4 sec) 
Heartbeat CPU 0 instructions: 1050000002 cycles: 1592453246 heartbeat IPC: 0.622506 cumulative IPC: 0.608609 (Simulation time: 0 hr 53 min 35 sec) 
Heartbeat CPU 0 instructions: 1060000003 cycles: 1608142687 heartbeat IPC: 0.637371 cumulative IPC: 0.608895 (Simulation time: 0 hr 54 min 6 sec) 
Heartbeat CPU 0 instructions: 1070000003 cycles: 1624115724 heartbeat IPC: 0.626055 cumulative IPC: 0.609067 (Simulation time: 0 hr 54 min 37 sec) 
Heartbeat CPU 0 instructions: 1080000001 cycles: 1639900730 heartbeat IPC: 0.633512 cumulative IPC: 0.609307 (Simulation time: 0 hr 55 min 7 sec) 
Heartbeat CPU 0 instructions: 1090000001 cycles: 1655616071 heartbeat IPC: 0.636321 cumulative IPC: 0.609569 (Simulation time: 0 hr 55 min 38 sec) 
Heartbeat CPU 0 instructions: 1100000000 cycles: 1671272082 heartbeat IPC: 0.638732 cumulative IPC: 0.609847 (Simulation time: 0 hr 56 min 9 sec) 
Finished CPU 0 instructions: 1000000000 cycles: 1639755529 cumulative IPC: 0.609847 (Simulation time: 0 hr 56 min 9 sec) 

ChampSim completed all CPUs

Region of Interest Statistics

CPU 0 cumulative IPC: 0.609847 instructions: 1000000000 cycles: 1639755529
L1D TOTAL     ACCESS:  161853033  HIT:  112937052  MISS:   48915981
L1D LOAD      ACCESS:   59474860  HIT:   52058774  MISS:    7416086
L1D RFO       ACCESS:  102378173  HIT:   60878278  MISS:   41499895
L1D PREFETCH  ACCESS:          0  HIT:          0  MISS:          0
L1D WRITEBACK ACCESS:          0  HIT:          0  MISS:          0
L1D PREFETCH  REQUESTED:          0  ISSUED:          0  USEFUL:          0  USELESS:          0
L1D AVERAGE MISS LATENCY: 275.957 cycles
L1I TOTAL     ACCESS:  159032473  HIT:  159032465  MISS:          8
L1I LOAD      ACCESS:  159032473  HIT:  159032465  MISS:          8
L1I RFO       ACCESS:          0  HIT:          0  MISS:          0
L1I PREFETCH  ACCESS:          0  HIT:          0  MISS:          0
L1I WRITEBACK ACCESS:          0  HIT:          0  MISS:          0
L1I PREFETCH  REQUESTED:          0  ISSUED:          0  USEFUL:          0  USELESS:          0
L1I AVERAGE MISS LATENCY: 383.5 cycles
L2C TOTAL     ACCESS:   90415876  HIT:   60511567  MISS:   29904309
L2C LOAD      ACCESS:    7416094  HIT:       5260  MISS:    7410834
L2C RFO       ACCESS:   41499884  HIT:   19007960  MISS:   22491924
L2C PREFETCH  ACCESS:          0  HIT:          0  MISS:          0
L2C WRITEBACK ACCESS:   41499898  HIT:   41498347  MISS:       1551
L2C PREFETCH  REQUESTED:          0  ISSUED:          0  USEFUL:          0  USELESS:          0
L2C AVERAGE MISS LATENCY: 428.436 cycles
LLC TOTAL     ACCESS:   52395503  HIT:    5384591  MISS:   47010912
LLC LOAD      ACCESS:    7410834  HIT:        859  MISS:    7409975
LLC RFO       ACCESS:   22491828  HIT:    1575889  MISS:   20915939
LLC PREFETCH  ACCESS:          0  HIT:          0  MISS:          0
LLC WRITEBACK ACCESS:   22492841  HIT:    3807843  MISS:   18684998
LLC PREFETCH  REQUESTED:          0  ISSUED:          0  USEFUL:          0  USELESS:          0
LLC AVERAGE MISS LATENCY: 246.247 cycles
Major fault: 0 Minor fault: 103151
==============================
Perceptron RRIP Stats:
   Num Updates:          1661093
   Num Primary Trains:   23748
   Num Secondary Trains: 25155
==============================
primary_perceptron #0: -2 2 0 -2 0 2 -2 2 -2 2 0 4 -2 2 2 -14 
secondary_perceptron #0: -5 3 1 1 5 1 -1 7 -3 1 1 3 -1 5 3 -3 -3 -1 -3 3 -21 


DRAM Statistics
 CHANNEL 0
 RQ ROW_BUFFER_HIT:    2419132  ROW_BUFFER_MISS:   25903438
 DBUS_CONGESTED:   27543936
 WQ ROW_BUFFER_HIT:    6858963  ROW_BUFFER_MISS:   14052036  FULL:       6377

 AVG_CONGESTED_CYCLE: 6

CPU 0 Branch Prediction Accuracy: 99.2955% MPKI: 0.099075 Average ROB Occupancy at Mispredict: 181.818

Branch types
NOT_BRANCH: 985936500 98.5936%
BRANCH_DIRECT_JUMP: 5411566 0.541157%
BRANCH_INDIRECT: 0 0%
BRANCH_CONDITIONAL: 8651860 0.865186%
BRANCH_DIRECT_CALL: 4 4e-07%
BRANCH_INDIRECT_CALL: 0 0%
BRANCH_RETURN: 4 4e-07%
BRANCH_OTHER: 0 0%

