
*** ChampSim Multicore Out-of-Order Simulator ***

Warmup Instructions: 100000000
Simulation Instructions: 1000000000
Number of CPUs: 1
LLC sets: 2048
LLC ways: 16
Off-chip DRAM Size: 4096 MB Channels: 1 Width: 64-bit Data Rate: 3200 MT/s

CPU 0 runs /scratch/user/kevin.weston/dpc3-traces/470.champsimtrace.xz
CPU 0 Bimodal branch predictor
Initialize DRRIP state
Assign rand_sets[0]: 454  LLC: 2048
rand_sets[0]: 454
Assign rand_sets[1]: 1662  LLC: 2048
rand_sets[1]: 1662
Assign rand_sets[2]: 1921  LLC: 2048
rand_sets[2]: 1921
Assign rand_sets[3]: 1131  LLC: 2048
rand_sets[3]: 1131
Assign rand_sets[4]: 331  LLC: 2048
rand_sets[4]: 331
Assign rand_sets[5]: 1531  LLC: 2048
rand_sets[5]: 1531
Assign rand_sets[6]: 482  LLC: 2048
rand_sets[6]: 482
Assign rand_sets[7]: 1275  LLC: 2048
rand_sets[7]: 1275
Assign rand_sets[8]: 1876  LLC: 2048
rand_sets[8]: 1876
Assign rand_sets[9]: 2038  LLC: 2048
rand_sets[9]: 2038
Assign rand_sets[10]: 701  LLC: 2048
rand_sets[10]: 701
Assign rand_sets[11]: 479  LLC: 2048
rand_sets[11]: 479
Assign rand_sets[12]: 892  LLC: 2048
rand_sets[12]: 892
Assign rand_sets[13]: 1820  LLC: 2048
rand_sets[13]: 1820
Assign rand_sets[14]: 1505  LLC: 2048
rand_sets[14]: 1505
Assign rand_sets[15]: 1159  LLC: 2048
rand_sets[15]: 1159
Assign rand_sets[16]: 513  LLC: 2048
rand_sets[16]: 513
Assign rand_sets[17]: 703  LLC: 2048
rand_sets[17]: 703
Assign rand_sets[18]: 561  LLC: 2048
rand_sets[18]: 561
Assign rand_sets[19]: 990  LLC: 2048
rand_sets[19]: 990
Assign rand_sets[20]: 342  LLC: 2048
rand_sets[20]: 342
Assign rand_sets[21]: 882  LLC: 2048
rand_sets[21]: 882
Assign rand_sets[22]: 15  LLC: 2048
rand_sets[22]: 15
Assign rand_sets[23]: 71  LLC: 2048
rand_sets[23]: 71
Assign rand_sets[24]: 1127  LLC: 2048
rand_sets[24]: 1127
Assign rand_sets[25]: 1382  LLC: 2048
rand_sets[25]: 1382
Assign rand_sets[26]: 647  LLC: 2048
rand_sets[26]: 647
Assign rand_sets[27]: 857  LLC: 2048
rand_sets[27]: 857
Assign rand_sets[28]: 1450  LLC: 2048
rand_sets[28]: 1450
Assign rand_sets[29]: 1160  LLC: 2048
rand_sets[29]: 1160
Assign rand_sets[30]: 1852  LLC: 2048
rand_sets[30]: 1852
Assign rand_sets[31]: 1881  LLC: 2048
rand_sets[31]: 1881
Assign rand_sets[32]: 1770  LLC: 2048
rand_sets[32]: 1770
Assign rand_sets[33]: 1622  LLC: 2048
rand_sets[33]: 1622
Assign rand_sets[34]: 275  LLC: 2048
rand_sets[34]: 275
Assign rand_sets[35]: 635  LLC: 2048
rand_sets[35]: 635
Assign rand_sets[36]: 466  LLC: 2048
rand_sets[36]: 466
Assign rand_sets[37]: 1413  LLC: 2048
rand_sets[37]: 1413
Assign rand_sets[38]: 417  LLC: 2048
rand_sets[38]: 417
Assign rand_sets[39]: 472  LLC: 2048
rand_sets[39]: 472
Assign rand_sets[40]: 1340  LLC: 2048
rand_sets[40]: 1340
Assign rand_sets[41]: 852  LLC: 2048
rand_sets[41]: 852
Assign rand_sets[42]: 1365  LLC: 2048
rand_sets[42]: 1365
Assign rand_sets[43]: 47  LLC: 2048
rand_sets[43]: 47
Assign rand_sets[44]: 823  LLC: 2048
rand_sets[44]: 823
Assign rand_sets[45]: 686  LLC: 2048
rand_sets[45]: 686
Assign rand_sets[46]: 1637  LLC: 2048
rand_sets[46]: 1637
Assign rand_sets[47]: 1115  LLC: 2048
rand_sets[47]: 1115
Assign rand_sets[48]: 986  LLC: 2048
rand_sets[48]: 986
Assign rand_sets[49]: 258  LLC: 2048
rand_sets[49]: 258
Assign rand_sets[50]: 633  LLC: 2048
rand_sets[50]: 633
Assign rand_sets[51]: 920  LLC: 2048
rand_sets[51]: 920
Assign rand_sets[52]: 204  LLC: 2048
rand_sets[52]: 204
Assign rand_sets[53]: 227  LLC: 2048
rand_sets[53]: 227
Assign rand_sets[54]: 1818  LLC: 2048
rand_sets[54]: 1818
Assign rand_sets[55]: 886  LLC: 2048
rand_sets[55]: 886
Assign rand_sets[56]: 1422  LLC: 2048
rand_sets[56]: 1422
Assign rand_sets[57]: 607  LLC: 2048
rand_sets[57]: 607
Assign rand_sets[58]: 217  LLC: 2048
rand_sets[58]: 217
Assign rand_sets[59]: 1945  LLC: 2048
rand_sets[59]: 1945
Assign rand_sets[60]: 143  LLC: 2048
rand_sets[60]: 143
Assign rand_sets[61]: 1311  LLC: 2048
rand_sets[61]: 1311
Assign rand_sets[62]: 319  LLC: 2048
rand_sets[62]: 319
Assign rand_sets[63]: 1846  LLC: 2048
rand_sets[63]: 1846
Heartbeat CPU 0 instructions: 10000000 cycles: 3152202 heartbeat IPC: 3.17239 cumulative IPC: 3.17239 (Simulation time: 0 hr 0 min 22 sec) 
Heartbeat CPU 0 instructions: 20000000 cycles: 6302291 heartbeat IPC: 3.17451 cumulative IPC: 3.17345 (Simulation time: 0 hr 0 min 43 sec) 
Heartbeat CPU 0 instructions: 30000000 cycles: 9454335 heartbeat IPC: 3.17254 cumulative IPC: 3.17315 (Simulation time: 0 hr 1 min 4 sec) 
Heartbeat CPU 0 instructions: 40000000 cycles: 12606404 heartbeat IPC: 3.17252 cumulative IPC: 3.17299 (Simulation time: 0 hr 1 min 26 sec) 
Heartbeat CPU 0 instructions: 50000001 cycles: 15758364 heartbeat IPC: 3.17263 cumulative IPC: 3.17292 (Simulation time: 0 hr 1 min 47 sec) 
Heartbeat CPU 0 instructions: 60000003 cycles: 18910285 heartbeat IPC: 3.17267 cumulative IPC: 3.17288 (Simulation time: 0 hr 2 min 8 sec) 
Heartbeat CPU 0 instructions: 70000002 cycles: 22062327 heartbeat IPC: 3.17255 cumulative IPC: 3.17283 (Simulation time: 0 hr 2 min 30 sec) 
Heartbeat CPU 0 instructions: 80000001 cycles: 25212571 heartbeat IPC: 3.17436 cumulative IPC: 3.17302 (Simulation time: 0 hr 2 min 51 sec) 
Heartbeat CPU 0 instructions: 90000000 cycles: 28364446 heartbeat IPC: 3.17271 cumulative IPC: 3.17299 (Simulation time: 0 hr 3 min 13 sec) 
Heartbeat CPU 0 instructions: 100000002 cycles: 31516504 heartbeat IPC: 3.17253 cumulative IPC: 3.17294 (Simulation time: 0 hr 3 min 34 sec) 

Warmup complete CPU 0 instructions: 100000002 cycles: 31516504 (Simulation time: 0 hr 3 min 34 sec) 

Heartbeat CPU 0 instructions: 110000000 cycles: 47893975 heartbeat IPC: 0.610595 cumulative IPC: 0.610595 (Simulation time: 0 hr 4 min 6 sec) 
Heartbeat CPU 0 instructions: 120000002 cycles: 64115504 heartbeat IPC: 0.616465 cumulative IPC: 0.613516 (Simulation time: 0 hr 4 min 37 sec) 
Heartbeat CPU 0 instructions: 130000000 cycles: 80019576 heartbeat IPC: 0.62877 cumulative IPC: 0.618517 (Simulation time: 0 hr 5 min 8 sec) 
Heartbeat CPU 0 instructions: 140000001 cycles: 96511360 heartbeat IPC: 0.606363 cumulative IPC: 0.615433 (Simulation time: 0 hr 5 min 40 sec) 
Heartbeat CPU 0 instructions: 150000002 cycles: 112928917 heartbeat IPC: 0.609104 cumulative IPC: 0.614157 (Simulation time: 0 hr 6 min 12 sec) 
Heartbeat CPU 0 instructions: 160000000 cycles: 129266214 heartbeat IPC: 0.612096 cumulative IPC: 0.613813 (Simulation time: 0 hr 6 min 43 sec) 
Heartbeat CPU 0 instructions: 170000001 cycles: 145701455 heartbeat IPC: 0.608449 cumulative IPC: 0.613041 (Simulation time: 0 hr 7 min 15 sec) 
Heartbeat CPU 0 instructions: 180000002 cycles: 162122995 heartbeat IPC: 0.608956 cumulative IPC: 0.612527 (Simulation time: 0 hr 7 min 46 sec) 
Heartbeat CPU 0 instructions: 190000002 cycles: 178769851 heartbeat IPC: 0.600714 cumulative IPC: 0.611192 (Simulation time: 0 hr 8 min 18 sec) 
Heartbeat CPU 0 instructions: 200000003 cycles: 195218285 heartbeat IPC: 0.607961 cumulative IPC: 0.610867 (Simulation time: 0 hr 8 min 50 sec) 
Heartbeat CPU 0 instructions: 210000000 cycles: 211728957 heartbeat IPC: 0.605669 cumulative IPC: 0.610391 (Simulation time: 0 hr 9 min 21 sec) 
Heartbeat CPU 0 instructions: 220000000 cycles: 228428528 heartbeat IPC: 0.598818 cumulative IPC: 0.609409 (Simulation time: 0 hr 9 min 53 sec) 
Heartbeat CPU 0 instructions: 230000003 cycles: 244820033 heartbeat IPC: 0.610072 cumulative IPC: 0.60946 (Simulation time: 0 hr 10 min 25 sec) 
Heartbeat CPU 0 instructions: 240000003 cycles: 261353710 heartbeat IPC: 0.604826 cumulative IPC: 0.609127 (Simulation time: 0 hr 10 min 57 sec) 
Heartbeat CPU 0 instructions: 250000003 cycles: 277793428 heartbeat IPC: 0.608283 cumulative IPC: 0.60907 (Simulation time: 0 hr 11 min 28 sec) 
Heartbeat CPU 0 instructions: 260000000 cycles: 294266631 heartbeat IPC: 0.607046 cumulative IPC: 0.608944 (Simulation time: 0 hr 12 min 0 sec) 
Heartbeat CPU 0 instructions: 270000003 cycles: 321858662 heartbeat IPC: 0.362424 cumulative IPC: 0.585516 (Simulation time: 0 hr 12 min 45 sec) 
Heartbeat CPU 0 instructions: 280000000 cycles: 338440131 heartbeat IPC: 0.603083 cumulative IPC: 0.586465 (Simulation time: 0 hr 13 min 17 sec) 
Heartbeat CPU 0 instructions: 290000002 cycles: 354980552 heartbeat IPC: 0.60458 cumulative IPC: 0.587391 (Simulation time: 0 hr 13 min 49 sec) 
Heartbeat CPU 0 instructions: 300000000 cycles: 371265629 heartbeat IPC: 0.614059 cumulative IPC: 0.58867 (Simulation time: 0 hr 14 min 21 sec) 
Heartbeat CPU 0 instructions: 310000001 cycles: 388183504 heartbeat IPC: 0.591091 cumulative IPC: 0.588785 (Simulation time: 0 hr 14 min 53 sec) 
Heartbeat CPU 0 instructions: 320000000 cycles: 405656086 heartbeat IPC: 0.572325 cumulative IPC: 0.588016 (Simulation time: 0 hr 15 min 26 sec) 
Heartbeat CPU 0 instructions: 330000000 cycles: 423183479 heartbeat IPC: 0.570535 cumulative IPC: 0.587234 (Simulation time: 0 hr 15 min 59 sec) 
Heartbeat CPU 0 instructions: 340000000 cycles: 440663656 heartbeat IPC: 0.572077 cumulative IPC: 0.586586 (Simulation time: 0 hr 16 min 32 sec) 
Heartbeat CPU 0 instructions: 350000000 cycles: 458868926 heartbeat IPC: 0.549291 cumulative IPC: 0.584997 (Simulation time: 0 hr 17 min 5 sec) 
Heartbeat CPU 0 instructions: 360000000 cycles: 477376316 heartbeat IPC: 0.540325 cumulative IPC: 0.583143 (Simulation time: 0 hr 17 min 40 sec) 
Heartbeat CPU 0 instructions: 370000001 cycles: 495722760 heartbeat IPC: 0.545065 cumulative IPC: 0.581638 (Simulation time: 0 hr 18 min 13 sec) 
Heartbeat CPU 0 instructions: 380000001 cycles: 513834688 heartbeat IPC: 0.552122 cumulative IPC: 0.58053 (Simulation time: 0 hr 18 min 47 sec) 
Heartbeat CPU 0 instructions: 390000000 cycles: 532226059 heartbeat IPC: 0.543733 cumulative IPC: 0.579178 (Simulation time: 0 hr 19 min 21 sec) 
Heartbeat CPU 0 instructions: 400000001 cycles: 550415268 heartbeat IPC: 0.549777 cumulative IPC: 0.578147 (Simulation time: 0 hr 19 min 54 sec) 
Heartbeat CPU 0 instructions: 410000001 cycles: 568011765 heartbeat IPC: 0.568295 cumulative IPC: 0.577824 (Simulation time: 0 hr 20 min 27 sec) 
Heartbeat CPU 0 instructions: 420000003 cycles: 585351742 heartbeat IPC: 0.576702 cumulative IPC: 0.577789 (Simulation time: 0 hr 21 min 0 sec) 
Heartbeat CPU 0 instructions: 430000001 cycles: 602256806 heartbeat IPC: 0.591539 cumulative IPC: 0.578196 (Simulation time: 0 hr 21 min 33 sec) 
Heartbeat CPU 0 instructions: 440000000 cycles: 619008797 heartbeat IPC: 0.596944 cumulative IPC: 0.578731 (Simulation time: 0 hr 22 min 5 sec) 
Heartbeat CPU 0 instructions: 450000001 cycles: 636289242 heartbeat IPC: 0.578689 cumulative IPC: 0.57873 (Simulation time: 0 hr 22 min 38 sec) 
Heartbeat CPU 0 instructions: 460000001 cycles: 653011787 heartbeat IPC: 0.597995 cumulative IPC: 0.579248 (Simulation time: 0 hr 23 min 10 sec) 
Heartbeat CPU 0 instructions: 470000000 cycles: 670049580 heartbeat IPC: 0.58693 cumulative IPC: 0.579453 (Simulation time: 0 hr 23 min 43 sec) 
Heartbeat CPU 0 instructions: 480000001 cycles: 687111724 heartbeat IPC: 0.586093 cumulative IPC: 0.579626 (Simulation time: 0 hr 24 min 15 sec) 
Heartbeat CPU 0 instructions: 490000000 cycles: 704103757 heartbeat IPC: 0.588511 cumulative IPC: 0.57985 (Simulation time: 0 hr 24 min 48 sec) 
Heartbeat CPU 0 instructions: 500000002 cycles: 720663528 heartbeat IPC: 0.603873 cumulative IPC: 0.580428 (Simulation time: 0 hr 25 min 20 sec) 
Heartbeat CPU 0 instructions: 510000001 cycles: 737478246 heartbeat IPC: 0.594717 cumulative IPC: 0.580768 (Simulation time: 0 hr 25 min 52 sec) 
Heartbeat CPU 0 instructions: 520000002 cycles: 754250226 heartbeat IPC: 0.596233 cumulative IPC: 0.581127 (Simulation time: 0 hr 26 min 25 sec) 
Heartbeat CPU 0 instructions: 530000000 cycles: 770596176 heartbeat IPC: 0.611772 cumulative IPC: 0.581805 (Simulation time: 0 hr 26 min 57 sec) 
Heartbeat CPU 0 instructions: 540000001 cycles: 787385491 heartbeat IPC: 0.595617 cumulative IPC: 0.582111 (Simulation time: 0 hr 27 min 29 sec) 
Heartbeat CPU 0 instructions: 550000000 cycles: 804455198 heartbeat IPC: 0.585833 cumulative IPC: 0.582194 (Simulation time: 0 hr 28 min 2 sec) 
Heartbeat CPU 0 instructions: 560000003 cycles: 821398590 heartbeat IPC: 0.590201 cumulative IPC: 0.582365 (Simulation time: 0 hr 28 min 34 sec) 
Heartbeat CPU 0 instructions: 570000001 cycles: 838374660 heartbeat IPC: 0.589064 cumulative IPC: 0.582506 (Simulation time: 0 hr 29 min 7 sec) 
Heartbeat CPU 0 instructions: 580000001 cycles: 855309280 heartbeat IPC: 0.590506 cumulative IPC: 0.582671 (Simulation time: 0 hr 29 min 39 sec) 
Heartbeat CPU 0 instructions: 590000001 cycles: 872197934 heartbeat IPC: 0.592113 cumulative IPC: 0.582861 (Simulation time: 0 hr 30 min 11 sec) 
Heartbeat CPU 0 instructions: 600000001 cycles: 889145977 heartbeat IPC: 0.590039 cumulative IPC: 0.583002 (Simulation time: 0 hr 30 min 44 sec) 
Heartbeat CPU 0 instructions: 610000000 cycles: 905750145 heartbeat IPC: 0.602258 cumulative IPC: 0.583368 (Simulation time: 0 hr 31 min 16 sec) 
Heartbeat CPU 0 instructions: 620000000 cycles: 922584020 heartbeat IPC: 0.59404 cumulative IPC: 0.58357 (Simulation time: 0 hr 31 min 48 sec) 
Heartbeat CPU 0 instructions: 630000000 cycles: 939310676 heartbeat IPC: 0.597848 cumulative IPC: 0.583833 (Simulation time: 0 hr 32 min 21 sec) 
Heartbeat CPU 0 instructions: 640000000 cycles: 956250690 heartbeat IPC: 0.590318 cumulative IPC: 0.583952 (Simulation time: 0 hr 32 min 53 sec) 
Heartbeat CPU 0 instructions: 650000002 cycles: 973143825 heartbeat IPC: 0.591957 cumulative IPC: 0.584095 (Simulation time: 0 hr 33 min 26 sec) 
Heartbeat CPU 0 instructions: 660000000 cycles: 989762458 heartbeat IPC: 0.601734 cumulative IPC: 0.584401 (Simulation time: 0 hr 33 min 58 sec) 
Heartbeat CPU 0 instructions: 670000000 cycles: 1006632779 heartbeat IPC: 0.592757 cumulative IPC: 0.584546 (Simulation time: 0 hr 34 min 30 sec) 
Heartbeat CPU 0 instructions: 680000001 cycles: 1023362973 heartbeat IPC: 0.597722 cumulative IPC: 0.584768 (Simulation time: 0 hr 35 min 3 sec) 
Heartbeat CPU 0 instructions: 690000001 cycles: 1040198123 heartbeat IPC: 0.593995 cumulative IPC: 0.584922 (Simulation time: 0 hr 35 min 35 sec) 
Heartbeat CPU 0 instructions: 700000002 cycles: 1057666431 heartbeat IPC: 0.572465 cumulative IPC: 0.58471 (Simulation time: 0 hr 36 min 9 sec) 
Heartbeat CPU 0 instructions: 710000001 cycles: 1085297628 heartbeat IPC: 0.36191 cumulative IPC: 0.578868 (Simulation time: 0 hr 36 min 54 sec) 
Heartbeat CPU 0 instructions: 720000002 cycles: 1101986822 heartbeat IPC: 0.59919 cumulative IPC: 0.579185 (Simulation time: 0 hr 37 min 26 sec) 
Heartbeat CPU 0 instructions: 730000002 cycles: 1118346982 heartbeat IPC: 0.611241 cumulative IPC: 0.579667 (Simulation time: 0 hr 37 min 58 sec) 
Heartbeat CPU 0 instructions: 740000000 cycles: 1135246780 heartbeat IPC: 0.591723 cumulative IPC: 0.579852 (Simulation time: 0 hr 38 min 31 sec) 
Heartbeat CPU 0 instructions: 750000001 cycles: 1152576721 heartbeat IPC: 0.577036 cumulative IPC: 0.579808 (Simulation time: 0 hr 39 min 4 sec) 
Heartbeat CPU 0 instructions: 760000003 cycles: 1170378987 heartbeat IPC: 0.561726 cumulative IPC: 0.579526 (Simulation time: 0 hr 39 min 37 sec) 
Heartbeat CPU 0 instructions: 770000000 cycles: 1188491068 heartbeat IPC: 0.552118 cumulative IPC: 0.579097 (Simulation time: 0 hr 40 min 11 sec) 
Heartbeat CPU 0 instructions: 780000000 cycles: 1206547620 heartbeat IPC: 0.553816 cumulative IPC: 0.578708 (Simulation time: 0 hr 40 min 44 sec) 
Heartbeat CPU 0 instructions: 790000000 cycles: 1225130511 heartbeat IPC: 0.538129 cumulative IPC: 0.578076 (Simulation time: 0 hr 41 min 19 sec) 
Heartbeat CPU 0 instructions: 800000002 cycles: 1243671326 heartbeat IPC: 0.539351 cumulative IPC: 0.577484 (Simulation time: 0 hr 41 min 53 sec) 
Heartbeat CPU 0 instructions: 810000001 cycles: 1262255159 heartbeat IPC: 0.538102 cumulative IPC: 0.576889 (Simulation time: 0 hr 42 min 27 sec) 
Heartbeat CPU 0 instructions: 820000002 cycles: 1281173812 heartbeat IPC: 0.528579 cumulative IPC: 0.576158 (Simulation time: 0 hr 43 min 2 sec) 
Heartbeat CPU 0 instructions: 830000003 cycles: 1299651090 heartbeat IPC: 0.541205 cumulative IPC: 0.575649 (Simulation time: 0 hr 43 min 36 sec) 
Heartbeat CPU 0 instructions: 840000003 cycles: 1317765356 heartbeat IPC: 0.552051 cumulative IPC: 0.575316 (Simulation time: 0 hr 44 min 10 sec) 
Heartbeat CPU 0 instructions: 850000003 cycles: 1335630703 heartbeat IPC: 0.559743 cumulative IPC: 0.575103 (Simulation time: 0 hr 44 min 43 sec) 
Heartbeat CPU 0 instructions: 860000000 cycles: 1353056702 heartbeat IPC: 0.573855 cumulative IPC: 0.575087 (Simulation time: 0 hr 45 min 16 sec) 
Heartbeat CPU 0 instructions: 870000000 cycles: 1370254465 heartbeat IPC: 0.581471 cumulative IPC: 0.575169 (Simulation time: 0 hr 45 min 49 sec) 
Heartbeat CPU 0 instructions: 880000000 cycles: 1386614153 heartbeat IPC: 0.611259 cumulative IPC: 0.575604 (Simulation time: 0 hr 46 min 21 sec) 
Heartbeat CPU 0 instructions: 890000000 cycles: 1402998635 heartbeat IPC: 0.610334 cumulative IPC: 0.576019 (Simulation time: 0 hr 46 min 53 sec) 
Heartbeat CPU 0 instructions: 900000003 cycles: 1419430182 heartbeat IPC: 0.608586 cumulative IPC: 0.576405 (Simulation time: 0 hr 47 min 25 sec) 
Heartbeat CPU 0 instructions: 910000002 cycles: 1435797886 heartbeat IPC: 0.610959 cumulative IPC: 0.576807 (Simulation time: 0 hr 47 min 57 sec) 
Heartbeat CPU 0 instructions: 920000002 cycles: 1452211082 heartbeat IPC: 0.609266 cumulative IPC: 0.577182 (Simulation time: 0 hr 48 min 28 sec) 
Heartbeat CPU 0 instructions: 930000003 cycles: 1468484731 heartbeat IPC: 0.61449 cumulative IPC: 0.577605 (Simulation time: 0 hr 49 min 0 sec) 
Heartbeat CPU 0 instructions: 940000003 cycles: 1484689732 heartbeat IPC: 0.617093 cumulative IPC: 0.578045 (Simulation time: 0 hr 49 min 32 sec) 
Heartbeat CPU 0 instructions: 950000003 cycles: 1501406975 heartbeat IPC: 0.598185 cumulative IPC: 0.578274 (Simulation time: 0 hr 50 min 4 sec) 
Heartbeat CPU 0 instructions: 960000001 cycles: 1517677942 heartbeat IPC: 0.614591 cumulative IPC: 0.578672 (Simulation time: 0 hr 50 min 36 sec) 
Heartbeat CPU 0 instructions: 970000000 cycles: 1533736127 heartbeat IPC: 0.622735 cumulative IPC: 0.579143 (Simulation time: 0 hr 51 min 8 sec) 
Heartbeat CPU 0 instructions: 980000001 cycles: 1550021469 heartbeat IPC: 0.614049 cumulative IPC: 0.579517 (Simulation time: 0 hr 51 min 40 sec) 
Heartbeat CPU 0 instructions: 990000000 cycles: 1566282212 heartbeat IPC: 0.614978 cumulative IPC: 0.579893 (Simulation time: 0 hr 52 min 11 sec) 
Heartbeat CPU 0 instructions: 1000000003 cycles: 1582082976 heartbeat IPC: 0.632881 cumulative IPC: 0.580433 (Simulation time: 0 hr 52 min 41 sec) 
Heartbeat CPU 0 instructions: 1010000000 cycles: 1598529584 heartbeat IPC: 0.608028 cumulative IPC: 0.580723 (Simulation time: 0 hr 53 min 13 sec) 
Heartbeat CPU 0 instructions: 1020000000 cycles: 1615038673 heartbeat IPC: 0.605727 cumulative IPC: 0.580983 (Simulation time: 0 hr 53 min 44 sec) 
Heartbeat CPU 0 instructions: 1030000002 cycles: 1631433090 heartbeat IPC: 0.609964 cumulative IPC: 0.58128 (Simulation time: 0 hr 54 min 15 sec) 
Heartbeat CPU 0 instructions: 1040000003 cycles: 1647693640 heartbeat IPC: 0.614985 cumulative IPC: 0.581619 (Simulation time: 0 hr 54 min 46 sec) 
Heartbeat CPU 0 instructions: 1050000002 cycles: 1664183878 heartbeat IPC: 0.606419 cumulative IPC: 0.58187 (Simulation time: 0 hr 55 min 17 sec) 
Heartbeat CPU 0 instructions: 1060000003 cycles: 1680719955 heartbeat IPC: 0.604738 cumulative IPC: 0.582099 (Simulation time: 0 hr 55 min 48 sec) 
Heartbeat CPU 0 instructions: 1070000003 cycles: 1697200122 heartbeat IPC: 0.60679 cumulative IPC: 0.582343 (Simulation time: 0 hr 56 min 19 sec) 
Heartbeat CPU 0 instructions: 1080000001 cycles: 1713891003 heartbeat IPC: 0.599129 cumulative IPC: 0.58251 (Simulation time: 0 hr 56 min 51 sec) 
Heartbeat CPU 0 instructions: 1090000003 cycles: 1730365907 heartbeat IPC: 0.606984 cumulative IPC: 0.582747 (Simulation time: 0 hr 57 min 22 sec) 
Heartbeat CPU 0 instructions: 1100000000 cycles: 1746895835 heartbeat IPC: 0.604963 cumulative IPC: 0.582961 (Simulation time: 0 hr 57 min 53 sec) 
Finished CPU 0 instructions: 1000000000 cycles: 1715379333 cumulative IPC: 0.582961 (Simulation time: 0 hr 57 min 53 sec) 

ChampSim completed all CPUs

Region of Interest Statistics

CPU 0 cumulative IPC: 0.582961 instructions: 1000000000 cycles: 1715379333
L1D TOTAL     ACCESS:  161875583  HIT:  112959610  MISS:   48915973
L1D LOAD      ACCESS:   59502322  HIT:   52086243  MISS:    7416079
L1D RFO       ACCESS:  102373261  HIT:   60873367  MISS:   41499894
L1D PREFETCH  ACCESS:          0  HIT:          0  MISS:          0
L1D WRITEBACK ACCESS:          0  HIT:          0  MISS:          0
L1D PREFETCH  REQUESTED:          0  ISSUED:          0  USEFUL:          0  USELESS:          0
L1D AVERAGE MISS LATENCY: 299.666 cycles
L1I TOTAL     ACCESS:  159070420  HIT:  159070412  MISS:          8
L1I LOAD      ACCESS:  159070420  HIT:  159070412  MISS:          8
L1I RFO       ACCESS:          0  HIT:          0  MISS:          0
L1I PREFETCH  ACCESS:          0  HIT:          0  MISS:          0
L1I WRITEBACK ACCESS:          0  HIT:          0  MISS:          0
L1I PREFETCH  REQUESTED:          0  ISSUED:          0  USEFUL:          0  USELESS:          0
L1I AVERAGE MISS LATENCY: 427.375 cycles
L2C TOTAL     ACCESS:   90415864  HIT:   60507637  MISS:   29908227
L2C LOAD      ACCESS:    7416087  HIT:       5187  MISS:    7410900
L2C RFO       ACCESS:   41499880  HIT:   19004380  MISS:   22495500
L2C PREFETCH  ACCESS:          0  HIT:          0  MISS:          0
L2C WRITEBACK ACCESS:   41499897  HIT:   41498070  MISS:       1827
L2C PREFETCH  REQUESTED:          0  ISSUED:          0  USEFUL:          0  USELESS:          0
L2C AVERAGE MISS LATENCY: 467.144 cycles
LLC TOTAL     ACCESS:   52403702  HIT:   10391407  MISS:   42012295
LLC LOAD      ACCESS:    7410900  HIT:        493  MISS:    7410407
LLC RFO       ACCESS:   22495448  HIT:     434335  MISS:   22061113
LLC PREFETCH  ACCESS:          0  HIT:          0  MISS:          0
LLC WRITEBACK ACCESS:   22497354  HIT:    9956579  MISS:   12540775
LLC PREFETCH  REQUESTED:          0  ISSUED:          0  USEFUL:          0  USELESS:          0
LLC AVERAGE MISS LATENCY: 303.149 cycles
Major fault: 0 Minor fault: 103151

DRAM Statistics
 CHANNEL 0
 RQ ROW_BUFFER_HIT:    2430113  ROW_BUFFER_MISS:   27040844
 DBUS_CONGESTED:   29168860
 WQ ROW_BUFFER_HIT:    5683695  ROW_BUFFER_MISS:   16387213  FULL:       1407

 AVG_CONGESTED_CYCLE: 6

CPU 0 Branch Prediction Accuracy: 99.2955% MPKI: 0.099075 Average ROB Occupancy at Mispredict: 181.811

Branch types
NOT_BRANCH: 985936500 98.5936%
BRANCH_DIRECT_JUMP: 5411566 0.541157%
BRANCH_INDIRECT: 0 0%
BRANCH_CONDITIONAL: 8651860 0.865186%
BRANCH_DIRECT_CALL: 4 4e-07%
BRANCH_INDIRECT_CALL: 0 0%
BRANCH_RETURN: 4 4e-07%
BRANCH_OTHER: 0 0%

