
*** ChampSim Multicore Out-of-Order Simulator ***

Warmup Instructions: 100000000
Simulation Instructions: 1000000000
Number of CPUs: 1
LLC sets: 2048
LLC ways: 16
Off-chip DRAM Size: 4096 MB Channels: 1 Width: 64-bit Data Rate: 3200 MT/s

CPU 0 runs /scratch/user/kevin.weston/dpc3-traces/470.champsimtrace.xz
CPU 0 Bimodal branch predictor
Per-line RRPV Initialized
PRRIP State Initialized
Assign SAMPLER_SET[0]: 454  LLC: 2048
SAMPLER_SET[0]: 454
Assign SAMPLER_SET[1]: 1662  LLC: 2048
SAMPLER_SET[1]: 1662
Assign SAMPLER_SET[2]: 1921  LLC: 2048
SAMPLER_SET[2]: 1921
Assign SAMPLER_SET[3]: 1131  LLC: 2048
SAMPLER_SET[3]: 1131
Assign SAMPLER_SET[4]: 331  LLC: 2048
SAMPLER_SET[4]: 331
Assign SAMPLER_SET[5]: 1531  LLC: 2048
SAMPLER_SET[5]: 1531
Assign SAMPLER_SET[6]: 482  LLC: 2048
SAMPLER_SET[6]: 482
Assign SAMPLER_SET[7]: 1275  LLC: 2048
SAMPLER_SET[7]: 1275
Assign SAMPLER_SET[8]: 1876  LLC: 2048
SAMPLER_SET[8]: 1876
Assign SAMPLER_SET[9]: 2038  LLC: 2048
SAMPLER_SET[9]: 2038
Assign SAMPLER_SET[10]: 701  LLC: 2048
SAMPLER_SET[10]: 701
Assign SAMPLER_SET[11]: 479  LLC: 2048
SAMPLER_SET[11]: 479
Assign SAMPLER_SET[12]: 892  LLC: 2048
SAMPLER_SET[12]: 892
Assign SAMPLER_SET[13]: 1820  LLC: 2048
SAMPLER_SET[13]: 1820
Assign SAMPLER_SET[14]: 1505  LLC: 2048
SAMPLER_SET[14]: 1505
Assign SAMPLER_SET[15]: 1159  LLC: 2048
SAMPLER_SET[15]: 1159
Assign SAMPLER_SET[16]: 513  LLC: 2048
SAMPLER_SET[16]: 513
Assign SAMPLER_SET[17]: 703  LLC: 2048
SAMPLER_SET[17]: 703
Assign SAMPLER_SET[18]: 561  LLC: 2048
SAMPLER_SET[18]: 561
Assign SAMPLER_SET[19]: 990  LLC: 2048
SAMPLER_SET[19]: 990
Assign SAMPLER_SET[20]: 342  LLC: 2048
SAMPLER_SET[20]: 342
Assign SAMPLER_SET[21]: 882  LLC: 2048
SAMPLER_SET[21]: 882
Assign SAMPLER_SET[22]: 15  LLC: 2048
SAMPLER_SET[22]: 15
Assign SAMPLER_SET[23]: 71  LLC: 2048
SAMPLER_SET[23]: 71
Assign SAMPLER_SET[24]: 1127  LLC: 2048
SAMPLER_SET[24]: 1127
Assign SAMPLER_SET[25]: 1382  LLC: 2048
SAMPLER_SET[25]: 1382
Assign SAMPLER_SET[26]: 647  LLC: 2048
SAMPLER_SET[26]: 647
Assign SAMPLER_SET[27]: 857  LLC: 2048
SAMPLER_SET[27]: 857
Assign SAMPLER_SET[28]: 1450  LLC: 2048
SAMPLER_SET[28]: 1450
Assign SAMPLER_SET[29]: 1160  LLC: 2048
SAMPLER_SET[29]: 1160
Assign SAMPLER_SET[30]: 1852  LLC: 2048
SAMPLER_SET[30]: 1852
Assign SAMPLER_SET[31]: 1881  LLC: 2048
SAMPLER_SET[31]: 1881
Assign SAMPLER_SET[32]: 1770  LLC: 2048
SAMPLER_SET[32]: 1770
Assign SAMPLER_SET[33]: 1622  LLC: 2048
SAMPLER_SET[33]: 1622
Assign SAMPLER_SET[34]: 275  LLC: 2048
SAMPLER_SET[34]: 275
Assign SAMPLER_SET[35]: 635  LLC: 2048
SAMPLER_SET[35]: 635
Assign SAMPLER_SET[36]: 466  LLC: 2048
SAMPLER_SET[36]: 466
Assign SAMPLER_SET[37]: 1413  LLC: 2048
SAMPLER_SET[37]: 1413
Assign SAMPLER_SET[38]: 417  LLC: 2048
SAMPLER_SET[38]: 417
Assign SAMPLER_SET[39]: 472  LLC: 2048
SAMPLER_SET[39]: 472
Assign SAMPLER_SET[40]: 1340  LLC: 2048
SAMPLER_SET[40]: 1340
Assign SAMPLER_SET[41]: 852  LLC: 2048
SAMPLER_SET[41]: 852
Assign SAMPLER_SET[42]: 1365  LLC: 2048
SAMPLER_SET[42]: 1365
Assign SAMPLER_SET[43]: 47  LLC: 2048
SAMPLER_SET[43]: 47
Assign SAMPLER_SET[44]: 823  LLC: 2048
SAMPLER_SET[44]: 823
Assign SAMPLER_SET[45]: 686  LLC: 2048
SAMPLER_SET[45]: 686
Assign SAMPLER_SET[46]: 1637  LLC: 2048
SAMPLER_SET[46]: 1637
Assign SAMPLER_SET[47]: 1115  LLC: 2048
SAMPLER_SET[47]: 1115
Assign SAMPLER_SET[48]: 986  LLC: 2048
SAMPLER_SET[48]: 986
Assign SAMPLER_SET[49]: 258  LLC: 2048
SAMPLER_SET[49]: 258
Assign SAMPLER_SET[50]: 633  LLC: 2048
SAMPLER_SET[50]: 633
Assign SAMPLER_SET[51]: 920  LLC: 2048
SAMPLER_SET[51]: 920
Assign SAMPLER_SET[52]: 204  LLC: 2048
SAMPLER_SET[52]: 204
Assign SAMPLER_SET[53]: 227  LLC: 2048
SAMPLER_SET[53]: 227
Assign SAMPLER_SET[54]: 1818  LLC: 2048
SAMPLER_SET[54]: 1818
Assign SAMPLER_SET[55]: 886  LLC: 2048
SAMPLER_SET[55]: 886
Assign SAMPLER_SET[56]: 1422  LLC: 2048
SAMPLER_SET[56]: 1422
Assign SAMPLER_SET[57]: 607  LLC: 2048
SAMPLER_SET[57]: 607
Assign SAMPLER_SET[58]: 217  LLC: 2048
SAMPLER_SET[58]: 217
Assign SAMPLER_SET[59]: 1945  LLC: 2048
SAMPLER_SET[59]: 1945
Assign SAMPLER_SET[60]: 143  LLC: 2048
SAMPLER_SET[60]: 143
Assign SAMPLER_SET[61]: 1311  LLC: 2048
SAMPLER_SET[61]: 1311
Assign SAMPLER_SET[62]: 319  LLC: 2048
SAMPLER_SET[62]: 319
Assign SAMPLER_SET[63]: 1846  LLC: 2048
SAMPLER_SET[63]: 1846
Assign SAMPLER_SET[64]: 238  LLC: 2048
SAMPLER_SET[64]: 238
Assign SAMPLER_SET[65]: 67  LLC: 2048
SAMPLER_SET[65]: 67
Assign SAMPLER_SET[66]: 1912  LLC: 2048
SAMPLER_SET[66]: 1912
Assign SAMPLER_SET[67]: 1613  LLC: 2048
SAMPLER_SET[67]: 1613
Assign SAMPLER_SET[68]: 1293  LLC: 2048
SAMPLER_SET[68]: 1293
Assign SAMPLER_SET[69]: 1018  LLC: 2048
SAMPLER_SET[69]: 1018
Assign SAMPLER_SET[70]: 1982  LLC: 2048
SAMPLER_SET[70]: 1982
Assign SAMPLER_SET[71]: 1702  LLC: 2048
SAMPLER_SET[71]: 1702
Assign SAMPLER_SET[72]: 1498  LLC: 2048
SAMPLER_SET[72]: 1498
Assign SAMPLER_SET[73]: 228  LLC: 2048
SAMPLER_SET[73]: 228
Assign SAMPLER_SET[74]: 1414  LLC: 2048
SAMPLER_SET[74]: 1414
Assign SAMPLER_SET[75]: 1166  LLC: 2048
SAMPLER_SET[75]: 1166
Assign SAMPLER_SET[76]: 732  LLC: 2048
SAMPLER_SET[76]: 732
Assign SAMPLER_SET[77]: 297  LLC: 2048
SAMPLER_SET[77]: 297
Assign SAMPLER_SET[78]: 1133  LLC: 2048
SAMPLER_SET[78]: 1133
Assign SAMPLER_SET[79]: 846  LLC: 2048
SAMPLER_SET[79]: 846
Assign SAMPLER_SET[80]: 767  LLC: 2048
SAMPLER_SET[80]: 767
Assign SAMPLER_SET[81]: 1878  LLC: 2048
SAMPLER_SET[81]: 1878
Assign SAMPLER_SET[82]: 993  LLC: 2048
SAMPLER_SET[82]: 993
Assign SAMPLER_SET[83]: 1392  LLC: 2048
SAMPLER_SET[83]: 1392
Assign SAMPLER_SET[84]: 1568  LLC: 2048
SAMPLER_SET[84]: 1568
Assign SAMPLER_SET[85]: 1787  LLC: 2048
SAMPLER_SET[85]: 1787
Assign SAMPLER_SET[86]: 399  LLC: 2048
SAMPLER_SET[86]: 399
Assign SAMPLER_SET[87]: 1201  LLC: 2048
SAMPLER_SET[87]: 1201
Assign SAMPLER_SET[88]: 856  LLC: 2048
SAMPLER_SET[88]: 856
Assign SAMPLER_SET[89]: 773  LLC: 2048
SAMPLER_SET[89]: 773
Assign SAMPLER_SET[90]: 1680  LLC: 2048
SAMPLER_SET[90]: 1680
Assign SAMPLER_SET[91]: 1477  LLC: 2048
SAMPLER_SET[91]: 1477
Assign SAMPLER_SET[92]: 9  LLC: 2048
SAMPLER_SET[92]: 9
Assign SAMPLER_SET[93]: 1500  LLC: 2048
SAMPLER_SET[93]: 1500
Assign SAMPLER_SET[94]: 851  LLC: 2048
SAMPLER_SET[94]: 851
Assign SAMPLER_SET[95]: 973  LLC: 2048
SAMPLER_SET[95]: 973
Assign SAMPLER_SET[96]: 938  LLC: 2048
SAMPLER_SET[96]: 938
Assign SAMPLER_SET[97]: 1851  LLC: 2048
SAMPLER_SET[97]: 1851
Assign SAMPLER_SET[98]: 1608  LLC: 2048
SAMPLER_SET[98]: 1608
Assign SAMPLER_SET[99]: 1945  LLC: 2048
Assign SAMPLER_SET[99]: 1106  LLC: 2048
SAMPLER_SET[99]: 1106
Assign SAMPLER_SET[100]: 979  LLC: 2048
SAMPLER_SET[100]: 979
Assign SAMPLER_SET[101]: 338  LLC: 2048
SAMPLER_SET[101]: 338
Assign SAMPLER_SET[102]: 1693  LLC: 2048
SAMPLER_SET[102]: 1693
Assign SAMPLER_SET[103]: 6  LLC: 2048
SAMPLER_SET[103]: 6
Assign SAMPLER_SET[104]: 671  LLC: 2048
SAMPLER_SET[104]: 671
Assign SAMPLER_SET[105]: 490  LLC: 2048
SAMPLER_SET[105]: 490
Assign SAMPLER_SET[106]: 1461  LLC: 2048
SAMPLER_SET[106]: 1461
Assign SAMPLER_SET[107]: 1730  LLC: 2048
SAMPLER_SET[107]: 1730
Assign SAMPLER_SET[108]: 1030  LLC: 2048
SAMPLER_SET[108]: 1030
Assign SAMPLER_SET[109]: 19  LLC: 2048
SAMPLER_SET[109]: 19
Assign SAMPLER_SET[110]: 920  LLC: 2048
Assign SAMPLER_SET[110]: 329  LLC: 2048
SAMPLER_SET[110]: 329
Assign SAMPLER_SET[111]: 1714  LLC: 2048
SAMPLER_SET[111]: 1714
Assign SAMPLER_SET[112]: 1  LLC: 2048
SAMPLER_SET[112]: 1
Assign SAMPLER_SET[113]: 1822  LLC: 2048
SAMPLER_SET[113]: 1822
Assign SAMPLER_SET[114]: 172  LLC: 2048
SAMPLER_SET[114]: 172
Assign SAMPLER_SET[115]: 1586  LLC: 2048
SAMPLER_SET[115]: 1586
Assign SAMPLER_SET[116]: 648  LLC: 2048
SAMPLER_SET[116]: 648
Assign SAMPLER_SET[117]: 1329  LLC: 2048
SAMPLER_SET[117]: 1329
Assign SAMPLER_SET[118]: 668  LLC: 2048
SAMPLER_SET[118]: 668
Assign SAMPLER_SET[119]: 1874  LLC: 2048
SAMPLER_SET[119]: 1874
Assign SAMPLER_SET[120]: 70  LLC: 2048
SAMPLER_SET[120]: 70
Assign SAMPLER_SET[121]: 661  LLC: 2048
SAMPLER_SET[121]: 661
Assign SAMPLER_SET[122]: 1649  LLC: 2048
SAMPLER_SET[122]: 1649
Assign SAMPLER_SET[123]: 1590  LLC: 2048
SAMPLER_SET[123]: 1590
Assign SAMPLER_SET[124]: 911  LLC: 2048
SAMPLER_SET[124]: 911
Assign SAMPLER_SET[125]: 1367  LLC: 2048
SAMPLER_SET[125]: 1367
Assign SAMPLER_SET[126]: 1782  LLC: 2048
SAMPLER_SET[126]: 1782
Assign SAMPLER_SET[127]: 569  LLC: 2048
SAMPLER_SET[127]: 569
Heartbeat CPU 0 instructions: 10000000 cycles: 3152180 heartbeat IPC: 3.17241 cumulative IPC: 3.17241 (Simulation time: 0 hr 0 min 21 sec) 
Heartbeat CPU 0 instructions: 20000000 cycles: 6302267 heartbeat IPC: 3.17452 cumulative IPC: 3.17346 (Simulation time: 0 hr 0 min 42 sec) 
Heartbeat CPU 0 instructions: 30000000 cycles: 9454299 heartbeat IPC: 3.17256 cumulative IPC: 3.17316 (Simulation time: 0 hr 1 min 3 sec) 
Heartbeat CPU 0 instructions: 40000000 cycles: 12606323 heartbeat IPC: 3.17256 cumulative IPC: 3.17301 (Simulation time: 0 hr 1 min 24 sec) 
Heartbeat CPU 0 instructions: 50000001 cycles: 15758285 heartbeat IPC: 3.17263 cumulative IPC: 3.17293 (Simulation time: 0 hr 1 min 45 sec) 
Heartbeat CPU 0 instructions: 60000003 cycles: 18910201 heartbeat IPC: 3.17267 cumulative IPC: 3.17289 (Simulation time: 0 hr 2 min 6 sec) 
Heartbeat CPU 0 instructions: 70000002 cycles: 22062236 heartbeat IPC: 3.17255 cumulative IPC: 3.17284 (Simulation time: 0 hr 2 min 27 sec) 
Heartbeat CPU 0 instructions: 80000001 cycles: 25212468 heartbeat IPC: 3.17437 cumulative IPC: 3.17303 (Simulation time: 0 hr 2 min 48 sec) 
Heartbeat CPU 0 instructions: 90000000 cycles: 28364362 heartbeat IPC: 3.1727 cumulative IPC: 3.173 (Simulation time: 0 hr 3 min 10 sec) 
Heartbeat CPU 0 instructions: 100000002 cycles: 31516425 heartbeat IPC: 3.17253 cumulative IPC: 3.17295 (Simulation time: 0 hr 3 min 31 sec) 

Warmup complete CPU 0 instructions: 100000002 cycles: 31516425 (Simulation time: 0 hr 3 min 31 sec) 

Heartbeat CPU 0 instructions: 110000000 cycles: 47139480 heartbeat IPC: 0.64008 cumulative IPC: 0.64008 (Simulation time: 0 hr 4 min 1 sec) 
Heartbeat CPU 0 instructions: 120000002 cycles: 63080002 heartbeat IPC: 0.627332 cumulative IPC: 0.633642 (Simulation time: 0 hr 4 min 32 sec) 
Heartbeat CPU 0 instructions: 130000000 cycles: 78745093 heartbeat IPC: 0.638362 cumulative IPC: 0.635207 (Simulation time: 0 hr 5 min 3 sec) 
Heartbeat CPU 0 instructions: 140000001 cycles: 94251461 heartbeat IPC: 0.644896 cumulative IPC: 0.637602 (Simulation time: 0 hr 5 min 34 sec) 
Heartbeat CPU 0 instructions: 150000002 cycles: 110019275 heartbeat IPC: 0.634203 cumulative IPC: 0.63692 (Simulation time: 0 hr 6 min 4 sec) 
Heartbeat CPU 0 instructions: 160000000 cycles: 125999801 heartbeat IPC: 0.625762 cumulative IPC: 0.635032 (Simulation time: 0 hr 6 min 35 sec) 
Heartbeat CPU 0 instructions: 170000001 cycles: 142065319 heartbeat IPC: 0.622451 cumulative IPC: 0.633204 (Simulation time: 0 hr 7 min 6 sec) 
Heartbeat CPU 0 instructions: 180000002 cycles: 157847500 heartbeat IPC: 0.633626 cumulative IPC: 0.633257 (Simulation time: 0 hr 7 min 37 sec) 
Heartbeat CPU 0 instructions: 190000002 cycles: 173554219 heartbeat IPC: 0.63667 cumulative IPC: 0.633634 (Simulation time: 0 hr 8 min 7 sec) 
Heartbeat CPU 0 instructions: 200000003 cycles: 189526343 heartbeat IPC: 0.626091 cumulative IPC: 0.632872 (Simulation time: 0 hr 8 min 39 sec) 
Heartbeat CPU 0 instructions: 210000000 cycles: 205339352 heartbeat IPC: 0.63239 cumulative IPC: 0.632828 (Simulation time: 0 hr 9 min 9 sec) 
Heartbeat CPU 0 instructions: 220000000 cycles: 220612651 heartbeat IPC: 0.654737 cumulative IPC: 0.634598 (Simulation time: 0 hr 9 min 41 sec) 
Heartbeat CPU 0 instructions: 230000003 cycles: 236020494 heartbeat IPC: 0.64902 cumulative IPC: 0.635684 (Simulation time: 0 hr 10 min 12 sec) 
Heartbeat CPU 0 instructions: 240000003 cycles: 251383538 heartbeat IPC: 0.650913 cumulative IPC: 0.636748 (Simulation time: 0 hr 10 min 43 sec) 
Heartbeat CPU 0 instructions: 250000003 cycles: 267290409 heartbeat IPC: 0.628659 cumulative IPC: 0.636203 (Simulation time: 0 hr 11 min 15 sec) 
Heartbeat CPU 0 instructions: 260000000 cycles: 283255595 heartbeat IPC: 0.626363 cumulative IPC: 0.635578 (Simulation time: 0 hr 11 min 47 sec) 
Heartbeat CPU 0 instructions: 270000003 cycles: 309658262 heartbeat IPC: 0.37875 cumulative IPC: 0.611199 (Simulation time: 0 hr 12 min 31 sec) 
Heartbeat CPU 0 instructions: 280000000 cycles: 325551279 heartbeat IPC: 0.629207 cumulative IPC: 0.612172 (Simulation time: 0 hr 13 min 2 sec) 
Heartbeat CPU 0 instructions: 290000002 cycles: 341062605 heartbeat IPC: 0.64469 cumulative IPC: 0.613802 (Simulation time: 0 hr 13 min 33 sec) 
Heartbeat CPU 0 instructions: 300000000 cycles: 356970008 heartbeat IPC: 0.628638 cumulative IPC: 0.614527 (Simulation time: 0 hr 14 min 5 sec) 
Heartbeat CPU 0 instructions: 310000003 cycles: 373379377 heartbeat IPC: 0.609408 cumulative IPC: 0.614281 (Simulation time: 0 hr 14 min 37 sec) 
Heartbeat CPU 0 instructions: 320000000 cycles: 389932446 heartbeat IPC: 0.604117 cumulative IPC: 0.613812 (Simulation time: 0 hr 15 min 10 sec) 
Heartbeat CPU 0 instructions: 330000000 cycles: 406964194 heartbeat IPC: 0.587139 cumulative IPC: 0.612602 (Simulation time: 0 hr 15 min 43 sec) 
Heartbeat CPU 0 instructions: 340000000 cycles: 424439187 heartbeat IPC: 0.572246 cumulative IPC: 0.610807 (Simulation time: 0 hr 16 min 16 sec) 
Heartbeat CPU 0 instructions: 350000000 cycles: 441963422 heartbeat IPC: 0.570638 cumulative IPC: 0.609092 (Simulation time: 0 hr 16 min 48 sec) 
Heartbeat CPU 0 instructions: 360000000 cycles: 459577316 heartbeat IPC: 0.567734 cumulative IPC: 0.60739 (Simulation time: 0 hr 17 min 21 sec) 
Heartbeat CPU 0 instructions: 370000001 cycles: 476868834 heartbeat IPC: 0.578318 cumulative IPC: 0.606261 (Simulation time: 0 hr 17 min 53 sec) 
Heartbeat CPU 0 instructions: 380000001 cycles: 494148374 heartbeat IPC: 0.578719 cumulative IPC: 0.605233 (Simulation time: 0 hr 18 min 26 sec) 
Heartbeat CPU 0 instructions: 390000000 cycles: 511712942 heartbeat IPC: 0.569328 cumulative IPC: 0.603919 (Simulation time: 0 hr 19 min 0 sec) 
Heartbeat CPU 0 instructions: 400000001 cycles: 528900913 heartbeat IPC: 0.581802 cumulative IPC: 0.603155 (Simulation time: 0 hr 19 min 33 sec) 
Heartbeat CPU 0 instructions: 410000001 cycles: 545675138 heartbeat IPC: 0.596153 cumulative IPC: 0.602927 (Simulation time: 0 hr 20 min 6 sec) 
Heartbeat CPU 0 instructions: 420000003 cycles: 562093330 heartbeat IPC: 0.609081 cumulative IPC: 0.603117 (Simulation time: 0 hr 20 min 39 sec) 
Heartbeat CPU 0 instructions: 430000001 cycles: 578021227 heartbeat IPC: 0.627829 cumulative IPC: 0.603837 (Simulation time: 0 hr 21 min 11 sec) 
Heartbeat CPU 0 instructions: 440000000 cycles: 594521086 heartbeat IPC: 0.606066 cumulative IPC: 0.603903 (Simulation time: 0 hr 21 min 43 sec) 
Heartbeat CPU 0 instructions: 450000001 cycles: 610579434 heartbeat IPC: 0.622729 cumulative IPC: 0.604425 (Simulation time: 0 hr 22 min 16 sec) 
Heartbeat CPU 0 instructions: 460000001 cycles: 626884119 heartbeat IPC: 0.613321 cumulative IPC: 0.604668 (Simulation time: 0 hr 22 min 48 sec) 
Heartbeat CPU 0 instructions: 470000000 cycles: 643058873 heartbeat IPC: 0.618247 cumulative IPC: 0.605027 (Simulation time: 0 hr 23 min 20 sec) 
Heartbeat CPU 0 instructions: 480000001 cycles: 659084915 heartbeat IPC: 0.623984 cumulative IPC: 0.605512 (Simulation time: 0 hr 23 min 53 sec) 
Heartbeat CPU 0 instructions: 490000000 cycles: 675418625 heartbeat IPC: 0.612231 cumulative IPC: 0.605682 (Simulation time: 0 hr 24 min 25 sec) 
Heartbeat CPU 0 instructions: 500000002 cycles: 691840573 heartbeat IPC: 0.608941 cumulative IPC: 0.605763 (Simulation time: 0 hr 24 min 58 sec) 
Heartbeat CPU 0 instructions: 510000001 cycles: 708026134 heartbeat IPC: 0.617835 cumulative IPC: 0.606052 (Simulation time: 0 hr 25 min 30 sec) 
Heartbeat CPU 0 instructions: 520000002 cycles: 724082509 heartbeat IPC: 0.622806 cumulative IPC: 0.60644 (Simulation time: 0 hr 26 min 2 sec) 
Heartbeat CPU 0 instructions: 530000000 cycles: 740220958 heartbeat IPC: 0.619638 cumulative IPC: 0.606741 (Simulation time: 0 hr 26 min 34 sec) 
Heartbeat CPU 0 instructions: 540000001 cycles: 756446002 heartbeat IPC: 0.616331 cumulative IPC: 0.606956 (Simulation time: 0 hr 27 min 6 sec) 
Heartbeat CPU 0 instructions: 550000000 cycles: 772569167 heartbeat IPC: 0.620226 cumulative IPC: 0.607244 (Simulation time: 0 hr 27 min 38 sec) 
Heartbeat CPU 0 instructions: 560000003 cycles: 788884643 heartbeat IPC: 0.612915 cumulative IPC: 0.607366 (Simulation time: 0 hr 28 min 11 sec) 
Heartbeat CPU 0 instructions: 570000001 cycles: 805261919 heartbeat IPC: 0.610602 cumulative IPC: 0.607435 (Simulation time: 0 hr 28 min 44 sec) 
Heartbeat CPU 0 instructions: 580000001 cycles: 821543511 heartbeat IPC: 0.614191 cumulative IPC: 0.607574 (Simulation time: 0 hr 29 min 16 sec) 
Heartbeat CPU 0 instructions: 590000001 cycles: 837683417 heartbeat IPC: 0.619582 cumulative IPC: 0.607814 (Simulation time: 0 hr 29 min 48 sec) 
Heartbeat CPU 0 instructions: 600000001 cycles: 854159153 heartbeat IPC: 0.606953 cumulative IPC: 0.607797 (Simulation time: 0 hr 30 min 21 sec) 
Heartbeat CPU 0 instructions: 610000001 cycles: 870303576 heartbeat IPC: 0.619409 cumulative IPC: 0.608021 (Simulation time: 0 hr 30 min 53 sec) 
Heartbeat CPU 0 instructions: 620000000 cycles: 886413022 heartbeat IPC: 0.620754 cumulative IPC: 0.608261 (Simulation time: 0 hr 31 min 25 sec) 
Heartbeat CPU 0 instructions: 630000000 cycles: 902648653 heartbeat IPC: 0.615929 cumulative IPC: 0.608404 (Simulation time: 0 hr 31 min 57 sec) 
Heartbeat CPU 0 instructions: 640000000 cycles: 919246169 heartbeat IPC: 0.6025 cumulative IPC: 0.608293 (Simulation time: 0 hr 32 min 30 sec) 
Heartbeat CPU 0 instructions: 650000002 cycles: 935456331 heartbeat IPC: 0.616897 cumulative IPC: 0.608448 (Simulation time: 0 hr 33 min 3 sec) 
Heartbeat CPU 0 instructions: 660000000 cycles: 951498356 heartbeat IPC: 0.623363 cumulative IPC: 0.608708 (Simulation time: 0 hr 33 min 34 sec) 
Heartbeat CPU 0 instructions: 670000000 cycles: 967657182 heartbeat IPC: 0.618857 cumulative IPC: 0.608883 (Simulation time: 0 hr 34 min 6 sec) 
Heartbeat CPU 0 instructions: 680000001 cycles: 983718589 heartbeat IPC: 0.622611 cumulative IPC: 0.609114 (Simulation time: 0 hr 34 min 38 sec) 
Heartbeat CPU 0 instructions: 690000001 cycles: 1000101938 heartbeat IPC: 0.610376 cumulative IPC: 0.609136 (Simulation time: 0 hr 35 min 10 sec) 
Heartbeat CPU 0 instructions: 700000002 cycles: 1016786537 heartbeat IPC: 0.599355 cumulative IPC: 0.60897 (Simulation time: 0 hr 35 min 42 sec) 
Heartbeat CPU 0 instructions: 710000001 cycles: 1042902394 heartbeat IPC: 0.382909 cumulative IPC: 0.603133 (Simulation time: 0 hr 36 min 26 sec) 
Heartbeat CPU 0 instructions: 720000002 cycles: 1059206668 heartbeat IPC: 0.613336 cumulative IPC: 0.603295 (Simulation time: 0 hr 36 min 58 sec) 
Heartbeat CPU 0 instructions: 730000000 cycles: 1075474790 heartbeat IPC: 0.614699 cumulative IPC: 0.603472 (Simulation time: 0 hr 37 min 30 sec) 
Heartbeat CPU 0 instructions: 740000000 cycles: 1091868017 heartbeat IPC: 0.610008 cumulative IPC: 0.603573 (Simulation time: 0 hr 38 min 2 sec) 
Heartbeat CPU 0 instructions: 750000001 cycles: 1108418217 heartbeat IPC: 0.604222 cumulative IPC: 0.603583 (Simulation time: 0 hr 38 min 35 sec) 
Heartbeat CPU 0 instructions: 760000003 cycles: 1125681822 heartbeat IPC: 0.579253 cumulative IPC: 0.603199 (Simulation time: 0 hr 39 min 8 sec) 
Heartbeat CPU 0 instructions: 770000000 cycles: 1142963434 heartbeat IPC: 0.57865 cumulative IPC: 0.602818 (Simulation time: 0 hr 39 min 40 sec) 
Heartbeat CPU 0 instructions: 780000000 cycles: 1160900895 heartbeat IPC: 0.557492 cumulative IPC: 0.602098 (Simulation time: 0 hr 40 min 14 sec) 
Heartbeat CPU 0 instructions: 790000000 cycles: 1178933619 heartbeat IPC: 0.554547 cumulative IPC: 0.601351 (Simulation time: 0 hr 40 min 48 sec) 
Heartbeat CPU 0 instructions: 800000002 cycles: 1196535111 heartbeat IPC: 0.568134 cumulative IPC: 0.600849 (Simulation time: 0 hr 41 min 21 sec) 
Heartbeat CPU 0 instructions: 810000001 cycles: 1214091993 heartbeat IPC: 0.569577 cumulative IPC: 0.600384 (Simulation time: 0 hr 41 min 54 sec) 
Heartbeat CPU 0 instructions: 820000002 cycles: 1232006095 heartbeat IPC: 0.558219 cumulative IPC: 0.599755 (Simulation time: 0 hr 42 min 28 sec) 
Heartbeat CPU 0 instructions: 830000003 cycles: 1249703782 heartbeat IPC: 0.565046 cumulative IPC: 0.599251 (Simulation time: 0 hr 43 min 1 sec) 
Heartbeat CPU 0 instructions: 840000003 cycles: 1267042321 heartbeat IPC: 0.57675 cumulative IPC: 0.598935 (Simulation time: 0 hr 43 min 33 sec) 
Heartbeat CPU 0 instructions: 850000003 cycles: 1284069871 heartbeat IPC: 0.587284 cumulative IPC: 0.598777 (Simulation time: 0 hr 44 min 6 sec) 
Heartbeat CPU 0 instructions: 860000000 cycles: 1300603743 heartbeat IPC: 0.604819 cumulative IPC: 0.598856 (Simulation time: 0 hr 44 min 38 sec) 
Heartbeat CPU 0 instructions: 870000000 cycles: 1317031541 heartbeat IPC: 0.608724 cumulative IPC: 0.598982 (Simulation time: 0 hr 45 min 10 sec) 
Heartbeat CPU 0 instructions: 880000000 cycles: 1331996172 heartbeat IPC: 0.668242 cumulative IPC: 0.599779 (Simulation time: 0 hr 45 min 40 sec) 
Heartbeat CPU 0 instructions: 890000000 cycles: 1347650067 heartbeat IPC: 0.638819 cumulative IPC: 0.600243 (Simulation time: 0 hr 46 min 11 sec) 
Heartbeat CPU 0 instructions: 900000002 cycles: 1363542948 heartbeat IPC: 0.629213 cumulative IPC: 0.600589 (Simulation time: 0 hr 46 min 43 sec) 
Heartbeat CPU 0 instructions: 910000002 cycles: 1379260799 heartbeat IPC: 0.636219 cumulative IPC: 0.601004 (Simulation time: 0 hr 47 min 14 sec) 
Heartbeat CPU 0 instructions: 920000002 cycles: 1394727625 heartbeat IPC: 0.646545 cumulative IPC: 0.601521 (Simulation time: 0 hr 47 min 44 sec) 
Heartbeat CPU 0 instructions: 930000003 cycles: 1410217020 heartbeat IPC: 0.645603 cumulative IPC: 0.602016 (Simulation time: 0 hr 48 min 15 sec) 
Heartbeat CPU 0 instructions: 940000003 cycles: 1426183301 heartbeat IPC: 0.62632 cumulative IPC: 0.602294 (Simulation time: 0 hr 48 min 46 sec) 
Heartbeat CPU 0 instructions: 950000003 cycles: 1441996461 heartbeat IPC: 0.632385 cumulative IPC: 0.602632 (Simulation time: 0 hr 49 min 16 sec) 
Heartbeat CPU 0 instructions: 960000003 cycles: 1457757445 heartbeat IPC: 0.634478 cumulative IPC: 0.602984 (Simulation time: 0 hr 49 min 47 sec) 
Heartbeat CPU 0 instructions: 970000000 cycles: 1473704707 heartbeat IPC: 0.627067 cumulative IPC: 0.60325 (Simulation time: 0 hr 50 min 18 sec) 
Heartbeat CPU 0 instructions: 980000000 cycles: 1489023249 heartbeat IPC: 0.652804 cumulative IPC: 0.603771 (Simulation time: 0 hr 50 min 48 sec) 
Heartbeat CPU 0 instructions: 990000000 cycles: 1505039138 heartbeat IPC: 0.62438 cumulative IPC: 0.603995 (Simulation time: 0 hr 51 min 20 sec) 
Heartbeat CPU 0 instructions: 1000000003 cycles: 1521047304 heartbeat IPC: 0.624681 cumulative IPC: 0.604217 (Simulation time: 0 hr 51 min 50 sec) 
Heartbeat CPU 0 instructions: 1010000000 cycles: 1536829868 heartbeat IPC: 0.63361 cumulative IPC: 0.604525 (Simulation time: 0 hr 52 min 21 sec) 
Heartbeat CPU 0 instructions: 1020000000 cycles: 1552532432 heartbeat IPC: 0.636839 cumulative IPC: 0.604859 (Simulation time: 0 hr 52 min 52 sec) 
Heartbeat CPU 0 instructions: 1030000002 cycles: 1568317188 heartbeat IPC: 0.633523 cumulative IPC: 0.605153 (Simulation time: 0 hr 53 min 23 sec) 
Heartbeat CPU 0 instructions: 1040000003 cycles: 1584510982 heartbeat IPC: 0.617521 cumulative IPC: 0.605282 (Simulation time: 0 hr 53 min 54 sec) 
Heartbeat CPU 0 instructions: 1050000002 cycles: 1600376931 heartbeat IPC: 0.630281 cumulative IPC: 0.605535 (Simulation time: 0 hr 54 min 26 sec) 
Heartbeat CPU 0 instructions: 1060000003 cycles: 1616067016 heartbeat IPC: 0.637345 cumulative IPC: 0.60585 (Simulation time: 0 hr 54 min 57 sec) 
Heartbeat CPU 0 instructions: 1070000003 cycles: 1631968340 heartbeat IPC: 0.628878 cumulative IPC: 0.606079 (Simulation time: 0 hr 55 min 28 sec) 
Heartbeat CPU 0 instructions: 1080000001 cycles: 1647634941 heartbeat IPC: 0.6383 cumulative IPC: 0.606391 (Simulation time: 0 hr 55 min 58 sec) 
Heartbeat CPU 0 instructions: 1090000001 cycles: 1663092754 heartbeat IPC: 0.646922 cumulative IPC: 0.606775 (Simulation time: 0 hr 56 min 29 sec) 
Heartbeat CPU 0 instructions: 1100000000 cycles: 1678807127 heartbeat IPC: 0.63636 cumulative IPC: 0.607057 (Simulation time: 0 hr 57 min 0 sec) 
Finished CPU 0 instructions: 1000000000 cycles: 1647290704 cumulative IPC: 0.607057 (Simulation time: 0 hr 57 min 0 sec) 

ChampSim completed all CPUs

Region of Interest Statistics

CPU 0 cumulative IPC: 0.607057 instructions: 1000000000 cycles: 1647290704
L1D TOTAL     ACCESS:  161845775  HIT:  112929800  MISS:   48915975
L1D LOAD      ACCESS:   59474658  HIT:   52058592  MISS:    7416066
L1D RFO       ACCESS:  102371117  HIT:   60871208  MISS:   41499909
L1D PREFETCH  ACCESS:          0  HIT:          0  MISS:          0
L1D WRITEBACK ACCESS:          0  HIT:          0  MISS:          0
L1D PREFETCH  REQUESTED:          0  ISSUED:          0  USEFUL:          0  USELESS:          0
L1D AVERAGE MISS LATENCY: 279.031 cycles
L1I TOTAL     ACCESS:  159033737  HIT:  159033729  MISS:          8
L1I LOAD      ACCESS:  159033737  HIT:  159033729  MISS:          8
L1I RFO       ACCESS:          0  HIT:          0  MISS:          0
L1I PREFETCH  ACCESS:          0  HIT:          0  MISS:          0
L1I WRITEBACK ACCESS:          0  HIT:          0  MISS:          0
L1I PREFETCH  REQUESTED:          0  ISSUED:          0  USEFUL:          0  USELESS:          0
L1I AVERAGE MISS LATENCY: 461.75 cycles
L2C TOTAL     ACCESS:   90415876  HIT:   60552289  MISS:   29863587
L2C LOAD      ACCESS:    7416074  HIT:       5200  MISS:    7410874
L2C RFO       ACCESS:   41499890  HIT:   19048939  MISS:   22450951
L2C PREFETCH  ACCESS:          0  HIT:          0  MISS:          0
L2C WRITEBACK ACCESS:   41499912  HIT:   41498150  MISS:       1762
L2C PREFETCH  REQUESTED:          0  ISSUED:          0  USEFUL:          0  USELESS:          0
L2C AVERAGE MISS LATENCY: 434.049 cycles
LLC TOTAL     ACCESS:   52312304  HIT:    4726044  MISS:   47586260
LLC LOAD      ACCESS:    7410874  HIT:       1241  MISS:    7409633
LLC RFO       ACCESS:   22450859  HIT:    1318217  MISS:   21132642
LLC PREFETCH  ACCESS:          0  HIT:          0  MISS:          0
LLC WRITEBACK ACCESS:   22450571  HIT:    3406586  MISS:   19043985
LLC PREFETCH  REQUESTED:          0  ISSUED:          0  USEFUL:          0  USELESS:          0
LLC AVERAGE MISS LATENCY: 246.466 cycles
Major fault: 0 Minor fault: 103151
==============================
Perceptron RRIP Stats:
   Num Updates:          3346904
   Num Primary Trains:   39701
   Num Secondary Trains: 37920
==============================
primary_perceptron #0: -1 -5 -3 1 -1 -3 -1 1 -3 -3 -1 3 -5 -1 -3 -17 
secondary_perceptron #0: -2 -6 -8 0 -8 -2 2 2 -4 -6 -4 6 -8 -2 -4 0 0 0 2 -2 -28 


DRAM Statistics
 CHANNEL 0
 RQ ROW_BUFFER_HIT:    2426588  ROW_BUFFER_MISS:   26110889
 DBUS_CONGESTED:   27864443
 WQ ROW_BUFFER_HIT:    6871145  ROW_BUFFER_MISS:   14261200  FULL:       1909

 AVG_CONGESTED_CYCLE: 6

CPU 0 Branch Prediction Accuracy: 99.2955% MPKI: 0.099075 Average ROB Occupancy at Mispredict: 181.796

Branch types
NOT_BRANCH: 985936500 98.5936%
BRANCH_DIRECT_JUMP: 5411566 0.541157%
BRANCH_INDIRECT: 0 0%
BRANCH_CONDITIONAL: 8651860 0.865186%
BRANCH_DIRECT_CALL: 4 4e-07%
BRANCH_INDIRECT_CALL: 0 0%
BRANCH_RETURN: 4 4e-07%
BRANCH_OTHER: 0 0%

