
*** ChampSim Multicore Out-of-Order Simulator ***

Warmup Instructions: 100000000
Simulation Instructions: 1000000000
Number of CPUs: 1
LLC sets: 2048
LLC ways: 16
Off-chip DRAM Size: 4096 MB Channels: 1 Width: 64-bit Data Rate: 3200 MT/s

CPU 0 runs /scratch/user/kevin.weston/dpc3-traces/470.champsimtrace.xz
CPU 0 Bimodal branch predictor
Initialize SHIP state
Assign rand_sets[0]: 454  LLC: 2048
rand_sets[0]: 454
Assign rand_sets[1]: 1662  LLC: 2048
rand_sets[1]: 1662
Assign rand_sets[2]: 1921  LLC: 2048
rand_sets[2]: 1921
Assign rand_sets[3]: 1131  LLC: 2048
rand_sets[3]: 1131
Assign rand_sets[4]: 331  LLC: 2048
rand_sets[4]: 331
Assign rand_sets[5]: 1531  LLC: 2048
rand_sets[5]: 1531
Assign rand_sets[6]: 482  LLC: 2048
rand_sets[6]: 482
Assign rand_sets[7]: 1275  LLC: 2048
rand_sets[7]: 1275
Assign rand_sets[8]: 1876  LLC: 2048
rand_sets[8]: 1876
Assign rand_sets[9]: 2038  LLC: 2048
rand_sets[9]: 2038
Assign rand_sets[10]: 701  LLC: 2048
rand_sets[10]: 701
Assign rand_sets[11]: 479  LLC: 2048
rand_sets[11]: 479
Assign rand_sets[12]: 892  LLC: 2048
rand_sets[12]: 892
Assign rand_sets[13]: 1820  LLC: 2048
rand_sets[13]: 1820
Assign rand_sets[14]: 1505  LLC: 2048
rand_sets[14]: 1505
Assign rand_sets[15]: 1159  LLC: 2048
rand_sets[15]: 1159
Assign rand_sets[16]: 513  LLC: 2048
rand_sets[16]: 513
Assign rand_sets[17]: 703  LLC: 2048
rand_sets[17]: 703
Assign rand_sets[18]: 561  LLC: 2048
rand_sets[18]: 561
Assign rand_sets[19]: 990  LLC: 2048
rand_sets[19]: 990
Assign rand_sets[20]: 342  LLC: 2048
rand_sets[20]: 342
Assign rand_sets[21]: 882  LLC: 2048
rand_sets[21]: 882
Assign rand_sets[22]: 15  LLC: 2048
rand_sets[22]: 15
Assign rand_sets[23]: 71  LLC: 2048
rand_sets[23]: 71
Assign rand_sets[24]: 1127  LLC: 2048
rand_sets[24]: 1127
Assign rand_sets[25]: 1382  LLC: 2048
rand_sets[25]: 1382
Assign rand_sets[26]: 647  LLC: 2048
rand_sets[26]: 647
Assign rand_sets[27]: 857  LLC: 2048
rand_sets[27]: 857
Assign rand_sets[28]: 1450  LLC: 2048
rand_sets[28]: 1450
Assign rand_sets[29]: 1160  LLC: 2048
rand_sets[29]: 1160
Assign rand_sets[30]: 1852  LLC: 2048
rand_sets[30]: 1852
Assign rand_sets[31]: 1881  LLC: 2048
rand_sets[31]: 1881
Assign rand_sets[32]: 1770  LLC: 2048
rand_sets[32]: 1770
Assign rand_sets[33]: 1622  LLC: 2048
rand_sets[33]: 1622
Assign rand_sets[34]: 275  LLC: 2048
rand_sets[34]: 275
Assign rand_sets[35]: 635  LLC: 2048
rand_sets[35]: 635
Assign rand_sets[36]: 466  LLC: 2048
rand_sets[36]: 466
Assign rand_sets[37]: 1413  LLC: 2048
rand_sets[37]: 1413
Assign rand_sets[38]: 417  LLC: 2048
rand_sets[38]: 417
Assign rand_sets[39]: 472  LLC: 2048
rand_sets[39]: 472
Assign rand_sets[40]: 1340  LLC: 2048
rand_sets[40]: 1340
Assign rand_sets[41]: 852  LLC: 2048
rand_sets[41]: 852
Assign rand_sets[42]: 1365  LLC: 2048
rand_sets[42]: 1365
Assign rand_sets[43]: 47  LLC: 2048
rand_sets[43]: 47
Assign rand_sets[44]: 823  LLC: 2048
rand_sets[44]: 823
Assign rand_sets[45]: 686  LLC: 2048
rand_sets[45]: 686
Assign rand_sets[46]: 1637  LLC: 2048
rand_sets[46]: 1637
Assign rand_sets[47]: 1115  LLC: 2048
rand_sets[47]: 1115
Assign rand_sets[48]: 986  LLC: 2048
rand_sets[48]: 986
Assign rand_sets[49]: 258  LLC: 2048
rand_sets[49]: 258
Assign rand_sets[50]: 633  LLC: 2048
rand_sets[50]: 633
Assign rand_sets[51]: 920  LLC: 2048
rand_sets[51]: 920
Assign rand_sets[52]: 204  LLC: 2048
rand_sets[52]: 204
Assign rand_sets[53]: 227  LLC: 2048
rand_sets[53]: 227
Assign rand_sets[54]: 1818  LLC: 2048
rand_sets[54]: 1818
Assign rand_sets[55]: 886  LLC: 2048
rand_sets[55]: 886
Assign rand_sets[56]: 1422  LLC: 2048
rand_sets[56]: 1422
Assign rand_sets[57]: 607  LLC: 2048
rand_sets[57]: 607
Assign rand_sets[58]: 217  LLC: 2048
rand_sets[58]: 217
Assign rand_sets[59]: 1945  LLC: 2048
rand_sets[59]: 1945
Assign rand_sets[60]: 143  LLC: 2048
rand_sets[60]: 143
Assign rand_sets[61]: 1311  LLC: 2048
rand_sets[61]: 1311
Assign rand_sets[62]: 319  LLC: 2048
rand_sets[62]: 319
Assign rand_sets[63]: 1846  LLC: 2048
rand_sets[63]: 1846
Assign rand_sets[64]: 238  LLC: 2048
rand_sets[64]: 238
Assign rand_sets[65]: 67  LLC: 2048
rand_sets[65]: 67
Assign rand_sets[66]: 1912  LLC: 2048
rand_sets[66]: 1912
Assign rand_sets[67]: 1613  LLC: 2048
rand_sets[67]: 1613
Assign rand_sets[68]: 1293  LLC: 2048
rand_sets[68]: 1293
Assign rand_sets[69]: 1018  LLC: 2048
rand_sets[69]: 1018
Assign rand_sets[70]: 1982  LLC: 2048
rand_sets[70]: 1982
Assign rand_sets[71]: 1702  LLC: 2048
rand_sets[71]: 1702
Assign rand_sets[72]: 1498  LLC: 2048
rand_sets[72]: 1498
Assign rand_sets[73]: 228  LLC: 2048
rand_sets[73]: 228
Assign rand_sets[74]: 1414  LLC: 2048
rand_sets[74]: 1414
Assign rand_sets[75]: 1166  LLC: 2048
rand_sets[75]: 1166
Assign rand_sets[76]: 732  LLC: 2048
rand_sets[76]: 732
Assign rand_sets[77]: 297  LLC: 2048
rand_sets[77]: 297
Assign rand_sets[78]: 1133  LLC: 2048
rand_sets[78]: 1133
Assign rand_sets[79]: 846  LLC: 2048
rand_sets[79]: 846
Assign rand_sets[80]: 767  LLC: 2048
rand_sets[80]: 767
Assign rand_sets[81]: 1878  LLC: 2048
rand_sets[81]: 1878
Assign rand_sets[82]: 993  LLC: 2048
rand_sets[82]: 993
Assign rand_sets[83]: 1392  LLC: 2048
rand_sets[83]: 1392
Assign rand_sets[84]: 1568  LLC: 2048
rand_sets[84]: 1568
Assign rand_sets[85]: 1787  LLC: 2048
rand_sets[85]: 1787
Assign rand_sets[86]: 399  LLC: 2048
rand_sets[86]: 399
Assign rand_sets[87]: 1201  LLC: 2048
rand_sets[87]: 1201
Assign rand_sets[88]: 856  LLC: 2048
rand_sets[88]: 856
Assign rand_sets[89]: 773  LLC: 2048
rand_sets[89]: 773
Assign rand_sets[90]: 1680  LLC: 2048
rand_sets[90]: 1680
Assign rand_sets[91]: 1477  LLC: 2048
rand_sets[91]: 1477
Assign rand_sets[92]: 9  LLC: 2048
rand_sets[92]: 9
Assign rand_sets[93]: 1500  LLC: 2048
rand_sets[93]: 1500
Assign rand_sets[94]: 851  LLC: 2048
rand_sets[94]: 851
Assign rand_sets[95]: 973  LLC: 2048
rand_sets[95]: 973
Assign rand_sets[96]: 938  LLC: 2048
rand_sets[96]: 938
Assign rand_sets[97]: 1851  LLC: 2048
rand_sets[97]: 1851
Assign rand_sets[98]: 1608  LLC: 2048
rand_sets[98]: 1608
Assign rand_sets[99]: 1945  LLC: 2048
Assign rand_sets[99]: 1106  LLC: 2048
rand_sets[99]: 1106
Assign rand_sets[100]: 979  LLC: 2048
rand_sets[100]: 979
Assign rand_sets[101]: 338  LLC: 2048
rand_sets[101]: 338
Assign rand_sets[102]: 1693  LLC: 2048
rand_sets[102]: 1693
Assign rand_sets[103]: 6  LLC: 2048
rand_sets[103]: 6
Assign rand_sets[104]: 671  LLC: 2048
rand_sets[104]: 671
Assign rand_sets[105]: 490  LLC: 2048
rand_sets[105]: 490
Assign rand_sets[106]: 1461  LLC: 2048
rand_sets[106]: 1461
Assign rand_sets[107]: 1730  LLC: 2048
rand_sets[107]: 1730
Assign rand_sets[108]: 1030  LLC: 2048
rand_sets[108]: 1030
Assign rand_sets[109]: 19  LLC: 2048
rand_sets[109]: 19
Assign rand_sets[110]: 920  LLC: 2048
Assign rand_sets[110]: 329  LLC: 2048
rand_sets[110]: 329
Assign rand_sets[111]: 1714  LLC: 2048
rand_sets[111]: 1714
Assign rand_sets[112]: 1  LLC: 2048
rand_sets[112]: 1
Assign rand_sets[113]: 1822  LLC: 2048
rand_sets[113]: 1822
Assign rand_sets[114]: 172  LLC: 2048
rand_sets[114]: 172
Assign rand_sets[115]: 1586  LLC: 2048
rand_sets[115]: 1586
Assign rand_sets[116]: 648  LLC: 2048
rand_sets[116]: 648
Assign rand_sets[117]: 1329  LLC: 2048
rand_sets[117]: 1329
Assign rand_sets[118]: 668  LLC: 2048
rand_sets[118]: 668
Assign rand_sets[119]: 1874  LLC: 2048
rand_sets[119]: 1874
Assign rand_sets[120]: 70  LLC: 2048
rand_sets[120]: 70
Assign rand_sets[121]: 661  LLC: 2048
rand_sets[121]: 661
Assign rand_sets[122]: 1649  LLC: 2048
rand_sets[122]: 1649
Assign rand_sets[123]: 1590  LLC: 2048
rand_sets[123]: 1590
Assign rand_sets[124]: 911  LLC: 2048
rand_sets[124]: 911
Assign rand_sets[125]: 1367  LLC: 2048
rand_sets[125]: 1367
Assign rand_sets[126]: 1782  LLC: 2048
rand_sets[126]: 1782
Assign rand_sets[127]: 569  LLC: 2048
rand_sets[127]: 569
Heartbeat CPU 0 instructions: 10000000 cycles: 3152200 heartbeat IPC: 3.17239 cumulative IPC: 3.17239 (Simulation time: 0 hr 0 min 20 sec) 
Heartbeat CPU 0 instructions: 20000000 cycles: 6302288 heartbeat IPC: 3.17451 cumulative IPC: 3.17345 (Simulation time: 0 hr 0 min 40 sec) 
Heartbeat CPU 0 instructions: 30000000 cycles: 9454319 heartbeat IPC: 3.17256 cumulative IPC: 3.17315 (Simulation time: 0 hr 1 min 0 sec) 
Heartbeat CPU 0 instructions: 40000000 cycles: 12606386 heartbeat IPC: 3.17252 cumulative IPC: 3.173 (Simulation time: 0 hr 1 min 20 sec) 
Heartbeat CPU 0 instructions: 50000001 cycles: 15758334 heartbeat IPC: 3.17264 cumulative IPC: 3.17292 (Simulation time: 0 hr 1 min 40 sec) 
Heartbeat CPU 0 instructions: 60000003 cycles: 18910199 heartbeat IPC: 3.17273 cumulative IPC: 3.17289 (Simulation time: 0 hr 2 min 0 sec) 
Heartbeat CPU 0 instructions: 70000002 cycles: 22062243 heartbeat IPC: 3.17254 cumulative IPC: 3.17284 (Simulation time: 0 hr 2 min 20 sec) 
Heartbeat CPU 0 instructions: 80000001 cycles: 25212482 heartbeat IPC: 3.17436 cumulative IPC: 3.17303 (Simulation time: 0 hr 2 min 40 sec) 
Heartbeat CPU 0 instructions: 90000000 cycles: 28364363 heartbeat IPC: 3.17271 cumulative IPC: 3.173 (Simulation time: 0 hr 3 min 0 sec) 
Heartbeat CPU 0 instructions: 100000002 cycles: 31516427 heartbeat IPC: 3.17253 cumulative IPC: 3.17295 (Simulation time: 0 hr 3 min 20 sec) 

Warmup complete CPU 0 instructions: 100000002 cycles: 31516427 (Simulation time: 0 hr 3 min 20 sec) 

Heartbeat CPU 0 instructions: 110000000 cycles: 47766507 heartbeat IPC: 0.615381 cumulative IPC: 0.615381 (Simulation time: 0 hr 3 min 51 sec) 
Heartbeat CPU 0 instructions: 120000002 cycles: 63839331 heartbeat IPC: 0.622168 cumulative IPC: 0.618756 (Simulation time: 0 hr 4 min 22 sec) 
Heartbeat CPU 0 instructions: 130000000 cycles: 80113379 heartbeat IPC: 0.614475 cumulative IPC: 0.617323 (Simulation time: 0 hr 4 min 53 sec) 
Heartbeat CPU 0 instructions: 140000001 cycles: 96528866 heartbeat IPC: 0.609181 cumulative IPC: 0.615267 (Simulation time: 0 hr 5 min 24 sec) 
Heartbeat CPU 0 instructions: 150000002 cycles: 112832527 heartbeat IPC: 0.613359 cumulative IPC: 0.614884 (Simulation time: 0 hr 5 min 55 sec) 
Heartbeat CPU 0 instructions: 160000000 cycles: 129148256 heartbeat IPC: 0.612905 cumulative IPC: 0.614554 (Simulation time: 0 hr 6 min 27 sec) 
Heartbeat CPU 0 instructions: 170000003 cycles: 145375620 heartbeat IPC: 0.616243 cumulative IPC: 0.614794 (Simulation time: 0 hr 6 min 57 sec) 
Heartbeat CPU 0 instructions: 180000002 cycles: 161357684 heartbeat IPC: 0.625701 cumulative IPC: 0.616137 (Simulation time: 0 hr 7 min 28 sec) 
Heartbeat CPU 0 instructions: 190000002 cycles: 177340124 heartbeat IPC: 0.625687 cumulative IPC: 0.617184 (Simulation time: 0 hr 7 min 59 sec) 
Heartbeat CPU 0 instructions: 200000003 cycles: 193865025 heartbeat IPC: 0.605147 cumulative IPC: 0.615959 (Simulation time: 0 hr 8 min 31 sec) 
Heartbeat CPU 0 instructions: 210000000 cycles: 210186122 heartbeat IPC: 0.612704 cumulative IPC: 0.615661 (Simulation time: 0 hr 9 min 2 sec) 
Heartbeat CPU 0 instructions: 220000000 cycles: 226625189 heartbeat IPC: 0.608307 cumulative IPC: 0.615042 (Simulation time: 0 hr 9 min 33 sec) 
Heartbeat CPU 0 instructions: 230000003 cycles: 242460496 heartbeat IPC: 0.6315 cumulative IPC: 0.616277 (Simulation time: 0 hr 10 min 4 sec) 
Heartbeat CPU 0 instructions: 240000003 cycles: 258737746 heartbeat IPC: 0.614354 cumulative IPC: 0.616139 (Simulation time: 0 hr 10 min 35 sec) 
Heartbeat CPU 0 instructions: 250000003 cycles: 275054930 heartbeat IPC: 0.612851 cumulative IPC: 0.615919 (Simulation time: 0 hr 11 min 6 sec) 
Heartbeat CPU 0 instructions: 260000000 cycles: 291365814 heartbeat IPC: 0.613087 cumulative IPC: 0.615741 (Simulation time: 0 hr 11 min 37 sec) 
Heartbeat CPU 0 instructions: 270000003 cycles: 318305435 heartbeat IPC: 0.371201 cumulative IPC: 0.59277 (Simulation time: 0 hr 12 min 22 sec) 
Heartbeat CPU 0 instructions: 280000000 cycles: 334677822 heartbeat IPC: 0.610784 cumulative IPC: 0.593743 (Simulation time: 0 hr 12 min 53 sec) 
Heartbeat CPU 0 instructions: 290000002 cycles: 350687826 heartbeat IPC: 0.62461 cumulative IPC: 0.595291 (Simulation time: 0 hr 13 min 24 sec) 
Heartbeat CPU 0 instructions: 300000000 cycles: 367081120 heartbeat IPC: 0.610005 cumulative IPC: 0.59601 (Simulation time: 0 hr 13 min 55 sec) 
Heartbeat CPU 0 instructions: 310000003 cycles: 383779650 heartbeat IPC: 0.598855 cumulative IPC: 0.596145 (Simulation time: 0 hr 14 min 26 sec) 
Heartbeat CPU 0 instructions: 320000000 cycles: 400983332 heartbeat IPC: 0.581271 cumulative IPC: 0.595452 (Simulation time: 0 hr 14 min 59 sec) 
Heartbeat CPU 0 instructions: 330000000 cycles: 418469729 heartbeat IPC: 0.571873 cumulative IPC: 0.594387 (Simulation time: 0 hr 15 min 31 sec) 
Heartbeat CPU 0 instructions: 340000000 cycles: 436248193 heartbeat IPC: 0.562478 cumulative IPC: 0.592985 (Simulation time: 0 hr 16 min 4 sec) 
Heartbeat CPU 0 instructions: 350000000 cycles: 454435819 heartbeat IPC: 0.549824 cumulative IPC: 0.591129 (Simulation time: 0 hr 16 min 38 sec) 
Heartbeat CPU 0 instructions: 360000000 cycles: 472133347 heartbeat IPC: 0.565051 cumulative IPC: 0.590082 (Simulation time: 0 hr 17 min 10 sec) 
Heartbeat CPU 0 instructions: 370000001 cycles: 490338476 heartbeat IPC: 0.549296 cumulative IPC: 0.588463 (Simulation time: 0 hr 17 min 44 sec) 
Heartbeat CPU 0 instructions: 380000001 cycles: 508377200 heartbeat IPC: 0.554363 cumulative IPC: 0.587173 (Simulation time: 0 hr 18 min 17 sec) 
Heartbeat CPU 0 instructions: 390000000 cycles: 526581487 heartbeat IPC: 0.549321 cumulative IPC: 0.585782 (Simulation time: 0 hr 18 min 50 sec) 
Heartbeat CPU 0 instructions: 400000001 cycles: 544377286 heartbeat IPC: 0.56193 cumulative IPC: 0.584954 (Simulation time: 0 hr 19 min 23 sec) 
Heartbeat CPU 0 instructions: 410000001 cycles: 561887024 heartbeat IPC: 0.571111 cumulative IPC: 0.584497 (Simulation time: 0 hr 19 min 55 sec) 
Heartbeat CPU 0 instructions: 420000003 cycles: 578835526 heartbeat IPC: 0.590023 cumulative IPC: 0.584668 (Simulation time: 0 hr 20 min 28 sec) 
Heartbeat CPU 0 instructions: 430000001 cycles: 595665732 heartbeat IPC: 0.59417 cumulative IPC: 0.584952 (Simulation time: 0 hr 20 min 59 sec) 
Heartbeat CPU 0 instructions: 440000000 cycles: 612670389 heartbeat IPC: 0.588074 cumulative IPC: 0.585043 (Simulation time: 0 hr 21 min 32 sec) 
Heartbeat CPU 0 instructions: 450000001 cycles: 629639829 heartbeat IPC: 0.589295 cumulative IPC: 0.585164 (Simulation time: 0 hr 22 min 4 sec) 
Heartbeat CPU 0 instructions: 460000001 cycles: 646383370 heartbeat IPC: 0.597245 cumulative IPC: 0.585493 (Simulation time: 0 hr 22 min 35 sec) 
Heartbeat CPU 0 instructions: 470000000 cycles: 662792462 heartbeat IPC: 0.609418 cumulative IPC: 0.586114 (Simulation time: 0 hr 23 min 7 sec) 
Heartbeat CPU 0 instructions: 480000001 cycles: 679698613 heartbeat IPC: 0.591501 cumulative IPC: 0.586255 (Simulation time: 0 hr 23 min 39 sec) 
Heartbeat CPU 0 instructions: 490000000 cycles: 696247467 heartbeat IPC: 0.604271 cumulative IPC: 0.586703 (Simulation time: 0 hr 24 min 11 sec) 
Heartbeat CPU 0 instructions: 500000002 cycles: 712770978 heartbeat IPC: 0.605198 cumulative IPC: 0.587152 (Simulation time: 0 hr 24 min 43 sec) 
Heartbeat CPU 0 instructions: 510000001 cycles: 729263994 heartbeat IPC: 0.606317 cumulative IPC: 0.587605 (Simulation time: 0 hr 25 min 14 sec) 
Heartbeat CPU 0 instructions: 520000002 cycles: 745915345 heartbeat IPC: 0.600552 cumulative IPC: 0.587907 (Simulation time: 0 hr 25 min 46 sec) 
Heartbeat CPU 0 instructions: 530000000 cycles: 762493956 heartbeat IPC: 0.603187 cumulative IPC: 0.588253 (Simulation time: 0 hr 26 min 17 sec) 
Heartbeat CPU 0 instructions: 540000001 cycles: 778990098 heartbeat IPC: 0.606202 cumulative IPC: 0.58865 (Simulation time: 0 hr 26 min 49 sec) 
Heartbeat CPU 0 instructions: 550000000 cycles: 795588584 heartbeat IPC: 0.602464 cumulative IPC: 0.58895 (Simulation time: 0 hr 27 min 21 sec) 
Heartbeat CPU 0 instructions: 560000003 cycles: 812192696 heartbeat IPC: 0.602261 cumulative IPC: 0.589233 (Simulation time: 0 hr 27 min 53 sec) 
Heartbeat CPU 0 instructions: 570000001 cycles: 829104452 heartbeat IPC: 0.591305 cumulative IPC: 0.589277 (Simulation time: 0 hr 28 min 25 sec) 
Heartbeat CPU 0 instructions: 580000001 cycles: 845963671 heartbeat IPC: 0.593147 cumulative IPC: 0.589357 (Simulation time: 0 hr 28 min 58 sec) 
Heartbeat CPU 0 instructions: 590000001 cycles: 862720460 heartbeat IPC: 0.596773 cumulative IPC: 0.589506 (Simulation time: 0 hr 29 min 30 sec) 
Heartbeat CPU 0 instructions: 600000001 cycles: 879545700 heartbeat IPC: 0.594345 cumulative IPC: 0.589602 (Simulation time: 0 hr 30 min 2 sec) 
Heartbeat CPU 0 instructions: 610000000 cycles: 895822664 heartbeat IPC: 0.614365 cumulative IPC: 0.590069 (Simulation time: 0 hr 30 min 34 sec) 
Heartbeat CPU 0 instructions: 620000002 cycles: 912249809 heartbeat IPC: 0.608749 cumulative IPC: 0.590417 (Simulation time: 0 hr 31 min 6 sec) 
Heartbeat CPU 0 instructions: 630000000 cycles: 929153990 heartbeat IPC: 0.591569 cumulative IPC: 0.590439 (Simulation time: 0 hr 31 min 38 sec) 
Heartbeat CPU 0 instructions: 640000000 cycles: 945838367 heartbeat IPC: 0.599363 cumulative IPC: 0.590602 (Simulation time: 0 hr 32 min 10 sec) 
Heartbeat CPU 0 instructions: 650000000 cycles: 962683244 heartbeat IPC: 0.593652 cumulative IPC: 0.590657 (Simulation time: 0 hr 32 min 43 sec) 
Heartbeat CPU 0 instructions: 660000000 cycles: 979045160 heartbeat IPC: 0.611175 cumulative IPC: 0.591011 (Simulation time: 0 hr 33 min 14 sec) 
Heartbeat CPU 0 instructions: 670000000 cycles: 995876865 heartbeat IPC: 0.594117 cumulative IPC: 0.591065 (Simulation time: 0 hr 33 min 47 sec) 
Heartbeat CPU 0 instructions: 680000001 cycles: 1012461097 heartbeat IPC: 0.602982 cumulative IPC: 0.591267 (Simulation time: 0 hr 34 min 19 sec) 
Heartbeat CPU 0 instructions: 690000001 cycles: 1029229597 heartbeat IPC: 0.596356 cumulative IPC: 0.591352 (Simulation time: 0 hr 34 min 51 sec) 
Heartbeat CPU 0 instructions: 700000002 cycles: 1046926128 heartbeat IPC: 0.565083 cumulative IPC: 0.590895 (Simulation time: 0 hr 35 min 24 sec) 
Heartbeat CPU 0 instructions: 710000001 cycles: 1074465675 heartbeat IPC: 0.363114 cumulative IPC: 0.58488 (Simulation time: 0 hr 36 min 10 sec) 
Heartbeat CPU 0 instructions: 720000002 cycles: 1090945933 heartbeat IPC: 0.606787 cumulative IPC: 0.585221 (Simulation time: 0 hr 36 min 42 sec) 
Heartbeat CPU 0 instructions: 730000002 cycles: 1107923436 heartbeat IPC: 0.589015 cumulative IPC: 0.58528 (Simulation time: 0 hr 37 min 14 sec) 
Heartbeat CPU 0 instructions: 740000000 cycles: 1124653638 heartbeat IPC: 0.597721 cumulative IPC: 0.585471 (Simulation time: 0 hr 37 min 46 sec) 
Heartbeat CPU 0 instructions: 750000001 cycles: 1141883231 heartbeat IPC: 0.580397 cumulative IPC: 0.585392 (Simulation time: 0 hr 38 min 19 sec) 
Heartbeat CPU 0 instructions: 760000003 cycles: 1159697304 heartbeat IPC: 0.561354 cumulative IPC: 0.585013 (Simulation time: 0 hr 38 min 52 sec) 
Heartbeat CPU 0 instructions: 770000000 cycles: 1177687985 heartbeat IPC: 0.555843 cumulative IPC: 0.584555 (Simulation time: 0 hr 39 min 26 sec) 
Heartbeat CPU 0 instructions: 780000000 cycles: 1196135990 heartbeat IPC: 0.542064 cumulative IPC: 0.583882 (Simulation time: 0 hr 40 min 0 sec) 
Heartbeat CPU 0 instructions: 790000000 cycles: 1214148019 heartbeat IPC: 0.555185 cumulative IPC: 0.583445 (Simulation time: 0 hr 40 min 34 sec) 
Heartbeat CPU 0 instructions: 800000002 cycles: 1232752606 heartbeat IPC: 0.537502 cumulative IPC: 0.582733 (Simulation time: 0 hr 41 min 8 sec) 
Heartbeat CPU 0 instructions: 810000001 cycles: 1251380138 heartbeat IPC: 0.53684 cumulative IPC: 0.582032 (Simulation time: 0 hr 41 min 42 sec) 
Heartbeat CPU 0 instructions: 820000002 cycles: 1270241636 heartbeat IPC: 0.530181 cumulative IPC: 0.581243 (Simulation time: 0 hr 42 min 16 sec) 
Heartbeat CPU 0 instructions: 830000003 cycles: 1288561604 heartbeat IPC: 0.545853 cumulative IPC: 0.580727 (Simulation time: 0 hr 42 min 50 sec) 
Heartbeat CPU 0 instructions: 840000003 cycles: 1306572023 heartbeat IPC: 0.555234 cumulative IPC: 0.580367 (Simulation time: 0 hr 43 min 24 sec) 
Heartbeat CPU 0 instructions: 850000003 cycles: 1324409080 heartbeat IPC: 0.560631 cumulative IPC: 0.580095 (Simulation time: 0 hr 43 min 57 sec) 
Heartbeat CPU 0 instructions: 860000002 cycles: 1341550552 heartbeat IPC: 0.58338 cumulative IPC: 0.580138 (Simulation time: 0 hr 44 min 29 sec) 
Heartbeat CPU 0 instructions: 870000000 cycles: 1358761885 heartbeat IPC: 0.581012 cumulative IPC: 0.580149 (Simulation time: 0 hr 45 min 1 sec) 
Heartbeat CPU 0 instructions: 880000000 cycles: 1374788508 heartbeat IPC: 0.623962 cumulative IPC: 0.580672 (Simulation time: 0 hr 45 min 32 sec) 
Heartbeat CPU 0 instructions: 890000000 cycles: 1391172067 heartbeat IPC: 0.610368 cumulative IPC: 0.581029 (Simulation time: 0 hr 46 min 4 sec) 
Heartbeat CPU 0 instructions: 900000003 cycles: 1407631089 heartbeat IPC: 0.60757 cumulative IPC: 0.581347 (Simulation time: 0 hr 46 min 35 sec) 
Heartbeat CPU 0 instructions: 910000002 cycles: 1423810499 heartbeat IPC: 0.618069 cumulative IPC: 0.581774 (Simulation time: 0 hr 47 min 6 sec) 
Heartbeat CPU 0 instructions: 920000002 cycles: 1440241504 heartbeat IPC: 0.608606 cumulative IPC: 0.582087 (Simulation time: 0 hr 47 min 38 sec) 
Heartbeat CPU 0 instructions: 930000003 cycles: 1456478979 heartbeat IPC: 0.615859 cumulative IPC: 0.582471 (Simulation time: 0 hr 48 min 9 sec) 
Heartbeat CPU 0 instructions: 940000003 cycles: 1472483264 heartbeat IPC: 0.624833 cumulative IPC: 0.582942 (Simulation time: 0 hr 48 min 40 sec) 
Heartbeat CPU 0 instructions: 950000001 cycles: 1488657199 heartbeat IPC: 0.618279 cumulative IPC: 0.583334 (Simulation time: 0 hr 49 min 11 sec) 
Heartbeat CPU 0 instructions: 960000003 cycles: 1504857652 heartbeat IPC: 0.617267 cumulative IPC: 0.583707 (Simulation time: 0 hr 49 min 43 sec) 
Heartbeat CPU 0 instructions: 970000000 cycles: 1521082270 heartbeat IPC: 0.616347 cumulative IPC: 0.584063 (Simulation time: 0 hr 50 min 14 sec) 
Heartbeat CPU 0 instructions: 980000001 cycles: 1537260675 heartbeat IPC: 0.618108 cumulative IPC: 0.584429 (Simulation time: 0 hr 50 min 45 sec) 
Heartbeat CPU 0 instructions: 990000000 cycles: 1553380336 heartbeat IPC: 0.62036 cumulative IPC: 0.584809 (Simulation time: 0 hr 51 min 16 sec) 
Heartbeat CPU 0 instructions: 1000000003 cycles: 1569530113 heartbeat IPC: 0.619204 cumulative IPC: 0.58517 (Simulation time: 0 hr 51 min 48 sec) 
Heartbeat CPU 0 instructions: 1010000000 cycles: 1585909993 heartbeat IPC: 0.610505 cumulative IPC: 0.585437 (Simulation time: 0 hr 52 min 19 sec) 
Heartbeat CPU 0 instructions: 1020000000 cycles: 1602229442 heartbeat IPC: 0.612766 cumulative IPC: 0.585721 (Simulation time: 0 hr 52 min 50 sec) 
Heartbeat CPU 0 instructions: 1030000002 cycles: 1618538169 heartbeat IPC: 0.613169 cumulative IPC: 0.586003 (Simulation time: 0 hr 53 min 22 sec) 
Heartbeat CPU 0 instructions: 1040000001 cycles: 1634953619 heartbeat IPC: 0.609182 cumulative IPC: 0.586241 (Simulation time: 0 hr 53 min 53 sec) 
Heartbeat CPU 0 instructions: 1050000002 cycles: 1650737756 heartbeat IPC: 0.633548 cumulative IPC: 0.586702 (Simulation time: 0 hr 54 min 24 sec) 
Heartbeat CPU 0 instructions: 1060000003 cycles: 1666782088 heartbeat IPC: 0.623273 cumulative IPC: 0.587061 (Simulation time: 0 hr 54 min 55 sec) 
Heartbeat CPU 0 instructions: 1070000001 cycles: 1683222536 heartbeat IPC: 0.608256 cumulative IPC: 0.587272 (Simulation time: 0 hr 55 min 27 sec) 
Heartbeat CPU 0 instructions: 1080000001 cycles: 1699594025 heartbeat IPC: 0.610818 cumulative IPC: 0.587503 (Simulation time: 0 hr 55 min 58 sec) 
Heartbeat CPU 0 instructions: 1090000003 cycles: 1716106703 heartbeat IPC: 0.605595 cumulative IPC: 0.58768 (Simulation time: 0 hr 56 min 30 sec) 
Heartbeat CPU 0 instructions: 1100000000 cycles: 1731864364 heartbeat IPC: 0.634612 cumulative IPC: 0.588115 (Simulation time: 0 hr 57 min 1 sec) 
Finished CPU 0 instructions: 1000000000 cycles: 1700347939 cumulative IPC: 0.588115 (Simulation time: 0 hr 57 min 1 sec) 

ChampSim completed all CPUs

Region of Interest Statistics

CPU 0 cumulative IPC: 0.588115 instructions: 1000000000 cycles: 1700347939
L1D TOTAL     ACCESS:  161871300  HIT:  112955337  MISS:   48915963
L1D LOAD      ACCESS:   59499509  HIT:   52083437  MISS:    7416072
L1D RFO       ACCESS:  102371791  HIT:   60871900  MISS:   41499891
L1D PREFETCH  ACCESS:          0  HIT:          0  MISS:          0
L1D WRITEBACK ACCESS:          0  HIT:          0  MISS:          0
L1D PREFETCH  REQUESTED:          0  ISSUED:          0  USEFUL:          0  USELESS:          0
L1D AVERAGE MISS LATENCY: 293.947 cycles
L1I TOTAL     ACCESS:  159060555  HIT:  159060547  MISS:          8
L1I LOAD      ACCESS:  159060555  HIT:  159060547  MISS:          8
L1I RFO       ACCESS:          0  HIT:          0  MISS:          0
L1I PREFETCH  ACCESS:          0  HIT:          0  MISS:          0
L1I WRITEBACK ACCESS:          0  HIT:          0  MISS:          0
L1I PREFETCH  REQUESTED:          0  ISSUED:          0  USEFUL:          0  USELESS:          0
L1I AVERAGE MISS LATENCY: 541.5 cycles
L2C TOTAL     ACCESS:   90415856  HIT:   60478472  MISS:   29937384
L2C LOAD      ACCESS:    7416080  HIT:       5200  MISS:    7410880
L2C RFO       ACCESS:   41499881  HIT:   18974816  MISS:   22525065
L2C PREFETCH  ACCESS:          0  HIT:          0  MISS:          0
L2C WRITEBACK ACCESS:   41499895  HIT:   41498456  MISS:       1439
L2C PREFETCH  REQUESTED:          0  ISSUED:          0  USEFUL:          0  USELESS:          0
L2C AVERAGE MISS LATENCY: 457.342 cycles
LLC TOTAL     ACCESS:   52463082  HIT:    2392513  MISS:   50070569
LLC LOAD      ACCESS:    7410880  HIT:        804  MISS:    7410076
LLC RFO       ACCESS:   22525004  HIT:     783338  MISS:   21741666
LLC PREFETCH  ACCESS:          0  HIT:          0  MISS:          0
LLC WRITEBACK ACCESS:   22527198  HIT:    1608371  MISS:   20918827
LLC PREFETCH  REQUESTED:          0  ISSUED:          0  USEFUL:          0  USELESS:          0
LLC AVERAGE MISS LATENCY: 248.744 cycles
Major fault: 0 Minor fault: 103151

DRAM Statistics
 CHANNEL 0
 RQ ROW_BUFFER_HIT:    2427887  ROW_BUFFER_MISS:   26721276
 DBUS_CONGESTED:   28685827
 WQ ROW_BUFFER_HIT:    5866639  ROW_BUFFER_MISS:   15877883  FULL:       1214

 AVG_CONGESTED_CYCLE: 6

CPU 0 Branch Prediction Accuracy: 99.2955% MPKI: 0.099075 Average ROB Occupancy at Mispredict: 181.783

Branch types
NOT_BRANCH: 985936518 98.5937%
BRANCH_DIRECT_JUMP: 5411566 0.541157%
BRANCH_INDIRECT: 0 0%
BRANCH_CONDITIONAL: 8651860 0.865186%
BRANCH_DIRECT_CALL: 4 4e-07%
BRANCH_INDIRECT_CALL: 0 0%
BRANCH_RETURN: 4 4e-07%
BRANCH_OTHER: 0 0%

