
*** ChampSim Multicore Out-of-Order Simulator ***

Warmup Instructions: 100000000
Simulation Instructions: 1000000000
Number of CPUs: 1
LLC sets: 2048
LLC ways: 16
Off-chip DRAM Size: 4096 MB Channels: 1 Width: 64-bit Data Rate: 3200 MT/s

CPU 0 runs /scratch/user/kevin.weston/dpc3-traces/470.champsimtrace.xz
CPU 0 Bimodal branch predictor
Per-line RRPV Initialized
PRRIP State Initialized
Assign SAMPLER_SET[0]: 454  LLC: 2048
SAMPLER_SET[0]: 454
Assign SAMPLER_SET[1]: 1662  LLC: 2048
SAMPLER_SET[1]: 1662
Assign SAMPLER_SET[2]: 1921  LLC: 2048
SAMPLER_SET[2]: 1921
Assign SAMPLER_SET[3]: 1131  LLC: 2048
SAMPLER_SET[3]: 1131
Assign SAMPLER_SET[4]: 331  LLC: 2048
SAMPLER_SET[4]: 331
Assign SAMPLER_SET[5]: 1531  LLC: 2048
SAMPLER_SET[5]: 1531
Assign SAMPLER_SET[6]: 482  LLC: 2048
SAMPLER_SET[6]: 482
Assign SAMPLER_SET[7]: 1275  LLC: 2048
SAMPLER_SET[7]: 1275
Assign SAMPLER_SET[8]: 1876  LLC: 2048
SAMPLER_SET[8]: 1876
Assign SAMPLER_SET[9]: 2038  LLC: 2048
SAMPLER_SET[9]: 2038
Assign SAMPLER_SET[10]: 701  LLC: 2048
SAMPLER_SET[10]: 701
Assign SAMPLER_SET[11]: 479  LLC: 2048
SAMPLER_SET[11]: 479
Assign SAMPLER_SET[12]: 892  LLC: 2048
SAMPLER_SET[12]: 892
Assign SAMPLER_SET[13]: 1820  LLC: 2048
SAMPLER_SET[13]: 1820
Assign SAMPLER_SET[14]: 1505  LLC: 2048
SAMPLER_SET[14]: 1505
Assign SAMPLER_SET[15]: 1159  LLC: 2048
SAMPLER_SET[15]: 1159
Assign SAMPLER_SET[16]: 513  LLC: 2048
SAMPLER_SET[16]: 513
Assign SAMPLER_SET[17]: 703  LLC: 2048
SAMPLER_SET[17]: 703
Assign SAMPLER_SET[18]: 561  LLC: 2048
SAMPLER_SET[18]: 561
Assign SAMPLER_SET[19]: 990  LLC: 2048
SAMPLER_SET[19]: 990
Assign SAMPLER_SET[20]: 342  LLC: 2048
SAMPLER_SET[20]: 342
Assign SAMPLER_SET[21]: 882  LLC: 2048
SAMPLER_SET[21]: 882
Assign SAMPLER_SET[22]: 15  LLC: 2048
SAMPLER_SET[22]: 15
Assign SAMPLER_SET[23]: 71  LLC: 2048
SAMPLER_SET[23]: 71
Assign SAMPLER_SET[24]: 1127  LLC: 2048
SAMPLER_SET[24]: 1127
Assign SAMPLER_SET[25]: 1382  LLC: 2048
SAMPLER_SET[25]: 1382
Assign SAMPLER_SET[26]: 647  LLC: 2048
SAMPLER_SET[26]: 647
Assign SAMPLER_SET[27]: 857  LLC: 2048
SAMPLER_SET[27]: 857
Assign SAMPLER_SET[28]: 1450  LLC: 2048
SAMPLER_SET[28]: 1450
Assign SAMPLER_SET[29]: 1160  LLC: 2048
SAMPLER_SET[29]: 1160
Assign SAMPLER_SET[30]: 1852  LLC: 2048
SAMPLER_SET[30]: 1852
Assign SAMPLER_SET[31]: 1881  LLC: 2048
SAMPLER_SET[31]: 1881
Assign SAMPLER_SET[32]: 1770  LLC: 2048
SAMPLER_SET[32]: 1770
Assign SAMPLER_SET[33]: 1622  LLC: 2048
SAMPLER_SET[33]: 1622
Assign SAMPLER_SET[34]: 275  LLC: 2048
SAMPLER_SET[34]: 275
Assign SAMPLER_SET[35]: 635  LLC: 2048
SAMPLER_SET[35]: 635
Assign SAMPLER_SET[36]: 466  LLC: 2048
SAMPLER_SET[36]: 466
Assign SAMPLER_SET[37]: 1413  LLC: 2048
SAMPLER_SET[37]: 1413
Assign SAMPLER_SET[38]: 417  LLC: 2048
SAMPLER_SET[38]: 417
Assign SAMPLER_SET[39]: 472  LLC: 2048
SAMPLER_SET[39]: 472
Assign SAMPLER_SET[40]: 1340  LLC: 2048
SAMPLER_SET[40]: 1340
Assign SAMPLER_SET[41]: 852  LLC: 2048
SAMPLER_SET[41]: 852
Assign SAMPLER_SET[42]: 1365  LLC: 2048
SAMPLER_SET[42]: 1365
Assign SAMPLER_SET[43]: 47  LLC: 2048
SAMPLER_SET[43]: 47
Assign SAMPLER_SET[44]: 823  LLC: 2048
SAMPLER_SET[44]: 823
Assign SAMPLER_SET[45]: 686  LLC: 2048
SAMPLER_SET[45]: 686
Assign SAMPLER_SET[46]: 1637  LLC: 2048
SAMPLER_SET[46]: 1637
Assign SAMPLER_SET[47]: 1115  LLC: 2048
SAMPLER_SET[47]: 1115
Assign SAMPLER_SET[48]: 986  LLC: 2048
SAMPLER_SET[48]: 986
Assign SAMPLER_SET[49]: 258  LLC: 2048
SAMPLER_SET[49]: 258
Assign SAMPLER_SET[50]: 633  LLC: 2048
SAMPLER_SET[50]: 633
Assign SAMPLER_SET[51]: 920  LLC: 2048
SAMPLER_SET[51]: 920
Assign SAMPLER_SET[52]: 204  LLC: 2048
SAMPLER_SET[52]: 204
Assign SAMPLER_SET[53]: 227  LLC: 2048
SAMPLER_SET[53]: 227
Assign SAMPLER_SET[54]: 1818  LLC: 2048
SAMPLER_SET[54]: 1818
Assign SAMPLER_SET[55]: 886  LLC: 2048
SAMPLER_SET[55]: 886
Assign SAMPLER_SET[56]: 1422  LLC: 2048
SAMPLER_SET[56]: 1422
Assign SAMPLER_SET[57]: 607  LLC: 2048
SAMPLER_SET[57]: 607
Assign SAMPLER_SET[58]: 217  LLC: 2048
SAMPLER_SET[58]: 217
Assign SAMPLER_SET[59]: 1945  LLC: 2048
SAMPLER_SET[59]: 1945
Assign SAMPLER_SET[60]: 143  LLC: 2048
SAMPLER_SET[60]: 143
Assign SAMPLER_SET[61]: 1311  LLC: 2048
SAMPLER_SET[61]: 1311
Assign SAMPLER_SET[62]: 319  LLC: 2048
SAMPLER_SET[62]: 319
Assign SAMPLER_SET[63]: 1846  LLC: 2048
SAMPLER_SET[63]: 1846
Assign SAMPLER_SET[64]: 238  LLC: 2048
SAMPLER_SET[64]: 238
Assign SAMPLER_SET[65]: 67  LLC: 2048
SAMPLER_SET[65]: 67
Assign SAMPLER_SET[66]: 1912  LLC: 2048
SAMPLER_SET[66]: 1912
Assign SAMPLER_SET[67]: 1613  LLC: 2048
SAMPLER_SET[67]: 1613
Assign SAMPLER_SET[68]: 1293  LLC: 2048
SAMPLER_SET[68]: 1293
Assign SAMPLER_SET[69]: 1018  LLC: 2048
SAMPLER_SET[69]: 1018
Assign SAMPLER_SET[70]: 1982  LLC: 2048
SAMPLER_SET[70]: 1982
Assign SAMPLER_SET[71]: 1702  LLC: 2048
SAMPLER_SET[71]: 1702
Assign SAMPLER_SET[72]: 1498  LLC: 2048
SAMPLER_SET[72]: 1498
Assign SAMPLER_SET[73]: 228  LLC: 2048
SAMPLER_SET[73]: 228
Assign SAMPLER_SET[74]: 1414  LLC: 2048
SAMPLER_SET[74]: 1414
Assign SAMPLER_SET[75]: 1166  LLC: 2048
SAMPLER_SET[75]: 1166
Assign SAMPLER_SET[76]: 732  LLC: 2048
SAMPLER_SET[76]: 732
Assign SAMPLER_SET[77]: 297  LLC: 2048
SAMPLER_SET[77]: 297
Assign SAMPLER_SET[78]: 1133  LLC: 2048
SAMPLER_SET[78]: 1133
Assign SAMPLER_SET[79]: 846  LLC: 2048
SAMPLER_SET[79]: 846
Assign SAMPLER_SET[80]: 767  LLC: 2048
SAMPLER_SET[80]: 767
Assign SAMPLER_SET[81]: 1878  LLC: 2048
SAMPLER_SET[81]: 1878
Assign SAMPLER_SET[82]: 993  LLC: 2048
SAMPLER_SET[82]: 993
Assign SAMPLER_SET[83]: 1392  LLC: 2048
SAMPLER_SET[83]: 1392
Assign SAMPLER_SET[84]: 1568  LLC: 2048
SAMPLER_SET[84]: 1568
Assign SAMPLER_SET[85]: 1787  LLC: 2048
SAMPLER_SET[85]: 1787
Assign SAMPLER_SET[86]: 399  LLC: 2048
SAMPLER_SET[86]: 399
Assign SAMPLER_SET[87]: 1201  LLC: 2048
SAMPLER_SET[87]: 1201
Assign SAMPLER_SET[88]: 856  LLC: 2048
SAMPLER_SET[88]: 856
Assign SAMPLER_SET[89]: 773  LLC: 2048
SAMPLER_SET[89]: 773
Assign SAMPLER_SET[90]: 1680  LLC: 2048
SAMPLER_SET[90]: 1680
Assign SAMPLER_SET[91]: 1477  LLC: 2048
SAMPLER_SET[91]: 1477
Assign SAMPLER_SET[92]: 9  LLC: 2048
SAMPLER_SET[92]: 9
Assign SAMPLER_SET[93]: 1500  LLC: 2048
SAMPLER_SET[93]: 1500
Assign SAMPLER_SET[94]: 851  LLC: 2048
SAMPLER_SET[94]: 851
Assign SAMPLER_SET[95]: 973  LLC: 2048
SAMPLER_SET[95]: 973
Assign SAMPLER_SET[96]: 938  LLC: 2048
SAMPLER_SET[96]: 938
Assign SAMPLER_SET[97]: 1851  LLC: 2048
SAMPLER_SET[97]: 1851
Assign SAMPLER_SET[98]: 1608  LLC: 2048
SAMPLER_SET[98]: 1608
Assign SAMPLER_SET[99]: 1945  LLC: 2048
Assign SAMPLER_SET[99]: 1106  LLC: 2048
SAMPLER_SET[99]: 1106
Assign SAMPLER_SET[100]: 979  LLC: 2048
SAMPLER_SET[100]: 979
Assign SAMPLER_SET[101]: 338  LLC: 2048
SAMPLER_SET[101]: 338
Assign SAMPLER_SET[102]: 1693  LLC: 2048
SAMPLER_SET[102]: 1693
Assign SAMPLER_SET[103]: 6  LLC: 2048
SAMPLER_SET[103]: 6
Assign SAMPLER_SET[104]: 671  LLC: 2048
SAMPLER_SET[104]: 671
Assign SAMPLER_SET[105]: 490  LLC: 2048
SAMPLER_SET[105]: 490
Assign SAMPLER_SET[106]: 1461  LLC: 2048
SAMPLER_SET[106]: 1461
Assign SAMPLER_SET[107]: 1730  LLC: 2048
SAMPLER_SET[107]: 1730
Assign SAMPLER_SET[108]: 1030  LLC: 2048
SAMPLER_SET[108]: 1030
Assign SAMPLER_SET[109]: 19  LLC: 2048
SAMPLER_SET[109]: 19
Assign SAMPLER_SET[110]: 920  LLC: 2048
Assign SAMPLER_SET[110]: 329  LLC: 2048
SAMPLER_SET[110]: 329
Assign SAMPLER_SET[111]: 1714  LLC: 2048
SAMPLER_SET[111]: 1714
Assign SAMPLER_SET[112]: 1  LLC: 2048
SAMPLER_SET[112]: 1
Assign SAMPLER_SET[113]: 1822  LLC: 2048
SAMPLER_SET[113]: 1822
Assign SAMPLER_SET[114]: 172  LLC: 2048
SAMPLER_SET[114]: 172
Assign SAMPLER_SET[115]: 1586  LLC: 2048
SAMPLER_SET[115]: 1586
Assign SAMPLER_SET[116]: 648  LLC: 2048
SAMPLER_SET[116]: 648
Assign SAMPLER_SET[117]: 1329  LLC: 2048
SAMPLER_SET[117]: 1329
Assign SAMPLER_SET[118]: 668  LLC: 2048
SAMPLER_SET[118]: 668
Assign SAMPLER_SET[119]: 1874  LLC: 2048
SAMPLER_SET[119]: 1874
Assign SAMPLER_SET[120]: 70  LLC: 2048
SAMPLER_SET[120]: 70
Assign SAMPLER_SET[121]: 661  LLC: 2048
SAMPLER_SET[121]: 661
Assign SAMPLER_SET[122]: 1649  LLC: 2048
SAMPLER_SET[122]: 1649
Assign SAMPLER_SET[123]: 1590  LLC: 2048
SAMPLER_SET[123]: 1590
Assign SAMPLER_SET[124]: 911  LLC: 2048
SAMPLER_SET[124]: 911
Assign SAMPLER_SET[125]: 1367  LLC: 2048
SAMPLER_SET[125]: 1367
Assign SAMPLER_SET[126]: 1782  LLC: 2048
SAMPLER_SET[126]: 1782
Assign SAMPLER_SET[127]: 569  LLC: 2048
SAMPLER_SET[127]: 569
Assign SAMPLER_SET[128]: 1309  LLC: 2048
SAMPLER_SET[128]: 1309
Assign SAMPLER_SET[129]: 534  LLC: 2048
SAMPLER_SET[129]: 534
Assign SAMPLER_SET[130]: 1274  LLC: 2048
SAMPLER_SET[130]: 1274
Assign SAMPLER_SET[131]: 904  LLC: 2048
SAMPLER_SET[131]: 904
Assign SAMPLER_SET[132]: 1908  LLC: 2048
SAMPLER_SET[132]: 1908
Assign SAMPLER_SET[133]: 245  LLC: 2048
SAMPLER_SET[133]: 245
Assign SAMPLER_SET[134]: 1688  LLC: 2048
SAMPLER_SET[134]: 1688
Assign SAMPLER_SET[135]: 1660  LLC: 2048
SAMPLER_SET[135]: 1660
Assign SAMPLER_SET[136]: 1303  LLC: 2048
SAMPLER_SET[136]: 1303
Assign SAMPLER_SET[137]: 1628  LLC: 2048
SAMPLER_SET[137]: 1628
Assign SAMPLER_SET[138]: 1857  LLC: 2048
SAMPLER_SET[138]: 1857
Assign SAMPLER_SET[139]: 187  LLC: 2048
SAMPLER_SET[139]: 187
Assign SAMPLER_SET[140]: 1389  LLC: 2048
SAMPLER_SET[140]: 1389
Assign SAMPLER_SET[141]: 881  LLC: 2048
SAMPLER_SET[141]: 881
Assign SAMPLER_SET[142]: 1166  LLC: 2048
Assign SAMPLER_SET[142]: 1039  LLC: 2048
SAMPLER_SET[142]: 1039
Assign SAMPLER_SET[143]: 1136  LLC: 2048
SAMPLER_SET[143]: 1136
Assign SAMPLER_SET[144]: 601  LLC: 2048
SAMPLER_SET[144]: 601
Assign SAMPLER_SET[145]: 967  LLC: 2048
SAMPLER_SET[145]: 967
Assign SAMPLER_SET[146]: 769  LLC: 2048
SAMPLER_SET[146]: 769
Assign SAMPLER_SET[147]: 283  LLC: 2048
SAMPLER_SET[147]: 283
Assign SAMPLER_SET[148]: 559  LLC: 2048
SAMPLER_SET[148]: 559
Assign SAMPLER_SET[149]: 1075  LLC: 2048
SAMPLER_SET[149]: 1075
Assign SAMPLER_SET[150]: 829  LLC: 2048
SAMPLER_SET[150]: 829
Assign SAMPLER_SET[151]: 1681  LLC: 2048
SAMPLER_SET[151]: 1681
Assign SAMPLER_SET[152]: 1728  LLC: 2048
SAMPLER_SET[152]: 1728
Assign SAMPLER_SET[153]: 541  LLC: 2048
SAMPLER_SET[153]: 541
Assign SAMPLER_SET[154]: 421  LLC: 2048
SAMPLER_SET[154]: 421
Assign SAMPLER_SET[155]: 1037  LLC: 2048
SAMPLER_SET[155]: 1037
Assign SAMPLER_SET[156]: 13  LLC: 2048
SAMPLER_SET[156]: 13
Assign SAMPLER_SET[157]: 1707  LLC: 2048
SAMPLER_SET[157]: 1707
Assign SAMPLER_SET[158]: 1075  LLC: 2048
Assign SAMPLER_SET[158]: 1933  LLC: 2048
SAMPLER_SET[158]: 1933
Assign SAMPLER_SET[159]: 1406  LLC: 2048
SAMPLER_SET[159]: 1406
Assign SAMPLER_SET[160]: 94  LLC: 2048
SAMPLER_SET[160]: 94
Assign SAMPLER_SET[161]: 1423  LLC: 2048
SAMPLER_SET[161]: 1423
Assign SAMPLER_SET[162]: 1854  LLC: 2048
SAMPLER_SET[162]: 1854
Assign SAMPLER_SET[163]: 230  LLC: 2048
SAMPLER_SET[163]: 230
Assign SAMPLER_SET[164]: 104  LLC: 2048
SAMPLER_SET[164]: 104
Assign SAMPLER_SET[165]: 1652  LLC: 2048
SAMPLER_SET[165]: 1652
Assign SAMPLER_SET[166]: 1446  LLC: 2048
SAMPLER_SET[166]: 1446
Assign SAMPLER_SET[167]: 1338  LLC: 2048
SAMPLER_SET[167]: 1338
Assign SAMPLER_SET[168]: 177  LLC: 2048
SAMPLER_SET[168]: 177
Assign SAMPLER_SET[169]: 195  LLC: 2048
SAMPLER_SET[169]: 195
Assign SAMPLER_SET[170]: 1171  LLC: 2048
SAMPLER_SET[170]: 1171
Assign SAMPLER_SET[171]: 1297  LLC: 2048
SAMPLER_SET[171]: 1297
Assign SAMPLER_SET[172]: 1704  LLC: 2048
SAMPLER_SET[172]: 1704
Assign SAMPLER_SET[173]: 100  LLC: 2048
SAMPLER_SET[173]: 100
Assign SAMPLER_SET[174]: 711  LLC: 2048
SAMPLER_SET[174]: 711
Assign SAMPLER_SET[175]: 1243  LLC: 2048
SAMPLER_SET[175]: 1243
Assign SAMPLER_SET[176]: 1738  LLC: 2048
SAMPLER_SET[176]: 1738
Assign SAMPLER_SET[177]: 1504  LLC: 2048
SAMPLER_SET[177]: 1504
Assign SAMPLER_SET[178]: 96  LLC: 2048
SAMPLER_SET[178]: 96
Assign SAMPLER_SET[179]: 1249  LLC: 2048
SAMPLER_SET[179]: 1249
Assign SAMPLER_SET[180]: 1267  LLC: 2048
SAMPLER_SET[180]: 1267
Assign SAMPLER_SET[181]: 1727  LLC: 2048
SAMPLER_SET[181]: 1727
Assign SAMPLER_SET[182]: 1545  LLC: 2048
SAMPLER_SET[182]: 1545
Assign SAMPLER_SET[183]: 1792  LLC: 2048
SAMPLER_SET[183]: 1792
Assign SAMPLER_SET[184]: 1383  LLC: 2048
SAMPLER_SET[184]: 1383
Assign SAMPLER_SET[185]: 1954  LLC: 2048
SAMPLER_SET[185]: 1954
Assign SAMPLER_SET[186]: 739  LLC: 2048
SAMPLER_SET[186]: 739
Assign SAMPLER_SET[187]: 1061  LLC: 2048
SAMPLER_SET[187]: 1061
Assign SAMPLER_SET[188]: 672  LLC: 2048
SAMPLER_SET[188]: 672
Assign SAMPLER_SET[189]: 1057  LLC: 2048
SAMPLER_SET[189]: 1057
Assign SAMPLER_SET[190]: 1329  LLC: 2048
Assign SAMPLER_SET[190]: 1415  LLC: 2048
SAMPLER_SET[190]: 1415
Assign SAMPLER_SET[191]: 981  LLC: 2048
SAMPLER_SET[191]: 981
Assign SAMPLER_SET[192]: 98  LLC: 2048
SAMPLER_SET[192]: 98
Assign SAMPLER_SET[193]: 453  LLC: 2048
SAMPLER_SET[193]: 453
Assign SAMPLER_SET[194]: 1448  LLC: 2048
SAMPLER_SET[194]: 1448
Assign SAMPLER_SET[195]: 79  LLC: 2048
SAMPLER_SET[195]: 79
Assign SAMPLER_SET[196]: 126  LLC: 2048
SAMPLER_SET[196]: 126
Assign SAMPLER_SET[197]: 1582  LLC: 2048
SAMPLER_SET[197]: 1582
Assign SAMPLER_SET[198]: 1289  LLC: 2048
SAMPLER_SET[198]: 1289
Assign SAMPLER_SET[199]: 875  LLC: 2048
SAMPLER_SET[199]: 875
Assign SAMPLER_SET[200]: 404  LLC: 2048
SAMPLER_SET[200]: 404
Assign SAMPLER_SET[201]: 415  LLC: 2048
SAMPLER_SET[201]: 415
Assign SAMPLER_SET[202]: 1712  LLC: 2048
SAMPLER_SET[202]: 1712
Assign SAMPLER_SET[203]: 1389  LLC: 2048
Assign SAMPLER_SET[203]: 169  LLC: 2048
SAMPLER_SET[203]: 169
Assign SAMPLER_SET[204]: 158  LLC: 2048
SAMPLER_SET[204]: 158
Assign SAMPLER_SET[205]: 90  LLC: 2048
SAMPLER_SET[205]: 90
Assign SAMPLER_SET[206]: 1291  LLC: 2048
SAMPLER_SET[206]: 1291
Assign SAMPLER_SET[207]: 838  LLC: 2048
SAMPLER_SET[207]: 838
Assign SAMPLER_SET[208]: 1904  LLC: 2048
SAMPLER_SET[208]: 1904
Assign SAMPLER_SET[209]: 640  LLC: 2048
SAMPLER_SET[209]: 640
Assign SAMPLER_SET[210]: 1462  LLC: 2048
SAMPLER_SET[210]: 1462
Assign SAMPLER_SET[211]: 1487  LLC: 2048
SAMPLER_SET[211]: 1487
Assign SAMPLER_SET[212]: 1863  LLC: 2048
SAMPLER_SET[212]: 1863
Assign SAMPLER_SET[213]: 1036  LLC: 2048
SAMPLER_SET[213]: 1036
Assign SAMPLER_SET[214]: 1702  LLC: 2048
Assign SAMPLER_SET[214]: 933  LLC: 2048
SAMPLER_SET[214]: 933
Assign SAMPLER_SET[215]: 554  LLC: 2048
SAMPLER_SET[215]: 554
Assign SAMPLER_SET[216]: 1496  LLC: 2048
SAMPLER_SET[216]: 1496
Assign SAMPLER_SET[217]: 1708  LLC: 2048
SAMPLER_SET[217]: 1708
Assign SAMPLER_SET[218]: 1275  LLC: 2048
Assign SAMPLER_SET[218]: 416  LLC: 2048
SAMPLER_SET[218]: 416
Assign SAMPLER_SET[219]: 491  LLC: 2048
SAMPLER_SET[219]: 491
Assign SAMPLER_SET[220]: 183  LLC: 2048
SAMPLER_SET[220]: 183
Assign SAMPLER_SET[221]: 1657  LLC: 2048
SAMPLER_SET[221]: 1657
Assign SAMPLER_SET[222]: 1060  LLC: 2048
SAMPLER_SET[222]: 1060
Assign SAMPLER_SET[223]: 626  LLC: 2048
SAMPLER_SET[223]: 626
Assign SAMPLER_SET[224]: 1315  LLC: 2048
SAMPLER_SET[224]: 1315
Assign SAMPLER_SET[225]: 1682  LLC: 2048
SAMPLER_SET[225]: 1682
Assign SAMPLER_SET[226]: 1352  LLC: 2048
SAMPLER_SET[226]: 1352
Assign SAMPLER_SET[227]: 1152  LLC: 2048
SAMPLER_SET[227]: 1152
Assign SAMPLER_SET[228]: 965  LLC: 2048
SAMPLER_SET[228]: 965
Assign SAMPLER_SET[229]: 1190  LLC: 2048
SAMPLER_SET[229]: 1190
Assign SAMPLER_SET[230]: 1191  LLC: 2048
SAMPLER_SET[230]: 1191
Assign SAMPLER_SET[231]: 645  LLC: 2048
SAMPLER_SET[231]: 645
Assign SAMPLER_SET[232]: 695  LLC: 2048
SAMPLER_SET[232]: 695
Assign SAMPLER_SET[233]: 1495  LLC: 2048
SAMPLER_SET[233]: 1495
Assign SAMPLER_SET[234]: 1932  LLC: 2048
SAMPLER_SET[234]: 1932
Assign SAMPLER_SET[235]: 656  LLC: 2048
SAMPLER_SET[235]: 656
Assign SAMPLER_SET[236]: 1508  LLC: 2048
SAMPLER_SET[236]: 1508
Assign SAMPLER_SET[237]: 939  LLC: 2048
SAMPLER_SET[237]: 939
Assign SAMPLER_SET[238]: 355  LLC: 2048
SAMPLER_SET[238]: 355
Assign SAMPLER_SET[239]: 1092  LLC: 2048
SAMPLER_SET[239]: 1092
Assign SAMPLER_SET[240]: 850  LLC: 2048
SAMPLER_SET[240]: 850
Assign SAMPLER_SET[241]: 102  LLC: 2048
SAMPLER_SET[241]: 102
Assign SAMPLER_SET[242]: 1763  LLC: 2048
SAMPLER_SET[242]: 1763
Assign SAMPLER_SET[243]: 668  LLC: 2048
Assign SAMPLER_SET[243]: 51  LLC: 2048
SAMPLER_SET[243]: 51
Assign SAMPLER_SET[244]: 1317  LLC: 2048
SAMPLER_SET[244]: 1317
Assign SAMPLER_SET[245]: 2041  LLC: 2048
SAMPLER_SET[245]: 2041
Assign SAMPLER_SET[246]: 1374  LLC: 2048
SAMPLER_SET[246]: 1374
Assign SAMPLER_SET[247]: 682  LLC: 2048
SAMPLER_SET[247]: 682
Assign SAMPLER_SET[248]: 1466  LLC: 2048
SAMPLER_SET[248]: 1466
Assign SAMPLER_SET[249]: 1139  LLC: 2048
SAMPLER_SET[249]: 1139
Assign SAMPLER_SET[250]: 1632  LLC: 2048
SAMPLER_SET[250]: 1632
Assign SAMPLER_SET[251]: 1117  LLC: 2048
SAMPLER_SET[251]: 1117
Assign SAMPLER_SET[252]: 1611  LLC: 2048
SAMPLER_SET[252]: 1611
Assign SAMPLER_SET[253]: 1905  LLC: 2048
SAMPLER_SET[253]: 1905
Assign SAMPLER_SET[254]: 1662  LLC: 2048
Assign SAMPLER_SET[254]: 446  LLC: 2048
SAMPLER_SET[254]: 446
Assign SAMPLER_SET[255]: 1705  LLC: 2048
SAMPLER_SET[255]: 1705
Assign SAMPLER_SET[256]: 1420  LLC: 2048
SAMPLER_SET[256]: 1420
Assign SAMPLER_SET[257]: 1623  LLC: 2048
SAMPLER_SET[257]: 1623
Assign SAMPLER_SET[258]: 537  LLC: 2048
SAMPLER_SET[258]: 537
Assign SAMPLER_SET[259]: 1905  LLC: 2048
Assign SAMPLER_SET[259]: 451  LLC: 2048
SAMPLER_SET[259]: 451
Assign SAMPLER_SET[260]: 1738  LLC: 2048
Assign SAMPLER_SET[260]: 1118  LLC: 2048
SAMPLER_SET[260]: 1118
Assign SAMPLER_SET[261]: 1253  LLC: 2048
SAMPLER_SET[261]: 1253
Assign SAMPLER_SET[262]: 1322  LLC: 2048
SAMPLER_SET[262]: 1322
Assign SAMPLER_SET[263]: 1331  LLC: 2048
SAMPLER_SET[263]: 1331
Assign SAMPLER_SET[264]: 1196  LLC: 2048
SAMPLER_SET[264]: 1196
Assign SAMPLER_SET[265]: 904  LLC: 2048
Assign SAMPLER_SET[265]: 1361  LLC: 2048
SAMPLER_SET[265]: 1361
Assign SAMPLER_SET[266]: 1894  LLC: 2048
SAMPLER_SET[266]: 1894
Assign SAMPLER_SET[267]: 1697  LLC: 2048
SAMPLER_SET[267]: 1697
Assign SAMPLER_SET[268]: 635  LLC: 2048
Assign SAMPLER_SET[268]: 1397  LLC: 2048
SAMPLER_SET[268]: 1397
Assign SAMPLER_SET[269]: 871  LLC: 2048
SAMPLER_SET[269]: 871
Assign SAMPLER_SET[270]: 100  LLC: 2048
Assign SAMPLER_SET[270]: 1946  LLC: 2048
SAMPLER_SET[270]: 1946
Assign SAMPLER_SET[271]: 1641  LLC: 2048
SAMPLER_SET[271]: 1641
Assign SAMPLER_SET[272]: 1775  LLC: 2048
SAMPLER_SET[272]: 1775
Assign SAMPLER_SET[273]: 623  LLC: 2048
SAMPLER_SET[273]: 623
Assign SAMPLER_SET[274]: 342  LLC: 2048
Assign SAMPLER_SET[274]: 322  LLC: 2048
SAMPLER_SET[274]: 322
Assign SAMPLER_SET[275]: 672  LLC: 2048
Assign SAMPLER_SET[275]: 29  LLC: 2048
SAMPLER_SET[275]: 29
Assign SAMPLER_SET[276]: 593  LLC: 2048
SAMPLER_SET[276]: 593
Assign SAMPLER_SET[277]: 197  LLC: 2048
SAMPLER_SET[277]: 197
Assign SAMPLER_SET[278]: 1282  LLC: 2048
SAMPLER_SET[278]: 1282
Assign SAMPLER_SET[279]: 1271  LLC: 2048
SAMPLER_SET[279]: 1271
Assign SAMPLER_SET[280]: 699  LLC: 2048
SAMPLER_SET[280]: 699
Assign SAMPLER_SET[281]: 1426  LLC: 2048
SAMPLER_SET[281]: 1426
Assign SAMPLER_SET[282]: 325  LLC: 2048
SAMPLER_SET[282]: 325
Assign SAMPLER_SET[283]: 702  LLC: 2048
SAMPLER_SET[283]: 702
Assign SAMPLER_SET[284]: 879  LLC: 2048
SAMPLER_SET[284]: 879
Assign SAMPLER_SET[285]: 269  LLC: 2048
SAMPLER_SET[285]: 269
Assign SAMPLER_SET[286]: 1462  LLC: 2048
Assign SAMPLER_SET[286]: 1080  LLC: 2048
SAMPLER_SET[286]: 1080
Assign SAMPLER_SET[287]: 1740  LLC: 2048
SAMPLER_SET[287]: 1740
Assign SAMPLER_SET[288]: 784  LLC: 2048
SAMPLER_SET[288]: 784
Assign SAMPLER_SET[289]: 1533  LLC: 2048
SAMPLER_SET[289]: 1533
Assign SAMPLER_SET[290]: 187  LLC: 2048
Assign SAMPLER_SET[290]: 852  LLC: 2048
Assign SAMPLER_SET[290]: 1617  LLC: 2048
SAMPLER_SET[290]: 1617
Assign SAMPLER_SET[291]: 1308  LLC: 2048
SAMPLER_SET[291]: 1308
Assign SAMPLER_SET[292]: 1147  LLC: 2048
SAMPLER_SET[292]: 1147
Assign SAMPLER_SET[293]: 1031  LLC: 2048
SAMPLER_SET[293]: 1031
Assign SAMPLER_SET[294]: 1940  LLC: 2048
SAMPLER_SET[294]: 1940
Assign SAMPLER_SET[295]: 807  LLC: 2048
SAMPLER_SET[295]: 807
Assign SAMPLER_SET[296]: 403  LLC: 2048
SAMPLER_SET[296]: 403
Assign SAMPLER_SET[297]: 637  LLC: 2048
SAMPLER_SET[297]: 637
Assign SAMPLER_SET[298]: 914  LLC: 2048
SAMPLER_SET[298]: 914
Assign SAMPLER_SET[299]: 707  LLC: 2048
SAMPLER_SET[299]: 707
Assign SAMPLER_SET[300]: 1492  LLC: 2048
SAMPLER_SET[300]: 1492
Assign SAMPLER_SET[301]: 1734  LLC: 2048
SAMPLER_SET[301]: 1734
Assign SAMPLER_SET[302]: 1957  LLC: 2048
SAMPLER_SET[302]: 1957
Assign SAMPLER_SET[303]: 609  LLC: 2048
SAMPLER_SET[303]: 609
Assign SAMPLER_SET[304]: 337  LLC: 2048
SAMPLER_SET[304]: 337
Assign SAMPLER_SET[305]: 257  LLC: 2048
SAMPLER_SET[305]: 257
Assign SAMPLER_SET[306]: 312  LLC: 2048
SAMPLER_SET[306]: 312
Assign SAMPLER_SET[307]: 1336  LLC: 2048
SAMPLER_SET[307]: 1336
Assign SAMPLER_SET[308]: 423  LLC: 2048
SAMPLER_SET[308]: 423
Assign SAMPLER_SET[309]: 191  LLC: 2048
SAMPLER_SET[309]: 191
Assign SAMPLER_SET[310]: 2033  LLC: 2048
SAMPLER_SET[310]: 2033
Assign SAMPLER_SET[311]: 4  LLC: 2048
SAMPLER_SET[311]: 4
Assign SAMPLER_SET[312]: 1549  LLC: 2048
SAMPLER_SET[312]: 1549
Assign SAMPLER_SET[313]: 1557  LLC: 2048
SAMPLER_SET[313]: 1557
Assign SAMPLER_SET[314]: 1691  LLC: 2048
SAMPLER_SET[314]: 1691
Assign SAMPLER_SET[315]: 1408  LLC: 2048
SAMPLER_SET[315]: 1408
Assign SAMPLER_SET[316]: 31  LLC: 2048
SAMPLER_SET[316]: 31
Assign SAMPLER_SET[317]: 131  LLC: 2048
SAMPLER_SET[317]: 131
Assign SAMPLER_SET[318]: 1749  LLC: 2048
SAMPLER_SET[318]: 1749
Assign SAMPLER_SET[319]: 1700  LLC: 2048
SAMPLER_SET[319]: 1700
Assign SAMPLER_SET[320]: 1385  LLC: 2048
SAMPLER_SET[320]: 1385
Assign SAMPLER_SET[321]: 1928  LLC: 2048
SAMPLER_SET[321]: 1928
Assign SAMPLER_SET[322]: 892  LLC: 2048
Assign SAMPLER_SET[322]: 671  LLC: 2048
Assign SAMPLER_SET[322]: 1462  LLC: 2048
Assign SAMPLER_SET[322]: 257  LLC: 2048
Assign SAMPLER_SET[322]: 1498  LLC: 2048
Assign SAMPLER_SET[322]: 659  LLC: 2048
SAMPLER_SET[322]: 659
Assign SAMPLER_SET[323]: 535  LLC: 2048
SAMPLER_SET[323]: 535
Assign SAMPLER_SET[324]: 325  LLC: 2048
Assign SAMPLER_SET[324]: 395  LLC: 2048
SAMPLER_SET[324]: 395
Assign SAMPLER_SET[325]: 1298  LLC: 2048
SAMPLER_SET[325]: 1298
Assign SAMPLER_SET[326]: 178  LLC: 2048
SAMPLER_SET[326]: 178
Assign SAMPLER_SET[327]: 258  LLC: 2048
Assign SAMPLER_SET[327]: 819  LLC: 2048
SAMPLER_SET[327]: 819
Assign SAMPLER_SET[328]: 1372  LLC: 2048
SAMPLER_SET[328]: 1372
Assign SAMPLER_SET[329]: 336  LLC: 2048
SAMPLER_SET[329]: 336
Assign SAMPLER_SET[330]: 1238  LLC: 2048
SAMPLER_SET[330]: 1238
Assign SAMPLER_SET[331]: 1505  LLC: 2048
Assign SAMPLER_SET[331]: 598  LLC: 2048
SAMPLER_SET[331]: 598
Assign SAMPLER_SET[332]: 1700  LLC: 2048
Assign SAMPLER_SET[332]: 685  LLC: 2048
SAMPLER_SET[332]: 685
Assign SAMPLER_SET[333]: 834  LLC: 2048
SAMPLER_SET[333]: 834
Assign SAMPLER_SET[334]: 330  LLC: 2048
SAMPLER_SET[334]: 330
Assign SAMPLER_SET[335]: 92  LLC: 2048
SAMPLER_SET[335]: 92
Assign SAMPLER_SET[336]: 221  LLC: 2048
SAMPLER_SET[336]: 221
Assign SAMPLER_SET[337]: 646  LLC: 2048
SAMPLER_SET[337]: 646
Assign SAMPLER_SET[338]: 97  LLC: 2048
SAMPLER_SET[338]: 97
Assign SAMPLER_SET[339]: 489  LLC: 2048
SAMPLER_SET[339]: 489
Assign SAMPLER_SET[340]: 771  LLC: 2048
SAMPLER_SET[340]: 771
Assign SAMPLER_SET[341]: 530  LLC: 2048
SAMPLER_SET[341]: 530
Assign SAMPLER_SET[342]: 1249  LLC: 2048
Assign SAMPLER_SET[342]: 527  LLC: 2048
SAMPLER_SET[342]: 527
Assign SAMPLER_SET[343]: 155  LLC: 2048
SAMPLER_SET[343]: 155
Assign SAMPLER_SET[344]: 2026  LLC: 2048
SAMPLER_SET[344]: 2026
Assign SAMPLER_SET[345]: 294  LLC: 2048
SAMPLER_SET[345]: 294
Assign SAMPLER_SET[346]: 1836  LLC: 2048
SAMPLER_SET[346]: 1836
Assign SAMPLER_SET[347]: 353  LLC: 2048
SAMPLER_SET[347]: 353
Assign SAMPLER_SET[348]: 1244  LLC: 2048
SAMPLER_SET[348]: 1244
Assign SAMPLER_SET[349]: 1634  LLC: 2048
SAMPLER_SET[349]: 1634
Assign SAMPLER_SET[350]: 1096  LLC: 2048
SAMPLER_SET[350]: 1096
Assign SAMPLER_SET[351]: 875  LLC: 2048
Assign SAMPLER_SET[351]: 1645  LLC: 2048
SAMPLER_SET[351]: 1645
Assign SAMPLER_SET[352]: 1556  LLC: 2048
SAMPLER_SET[352]: 1556
Assign SAMPLER_SET[353]: 736  LLC: 2048
SAMPLER_SET[353]: 736
Assign SAMPLER_SET[354]: 1795  LLC: 2048
SAMPLER_SET[354]: 1795
Assign SAMPLER_SET[355]: 901  LLC: 2048
SAMPLER_SET[355]: 901
Assign SAMPLER_SET[356]: 1866  LLC: 2048
SAMPLER_SET[356]: 1866
Assign SAMPLER_SET[357]: 1394  LLC: 2048
SAMPLER_SET[357]: 1394
Assign SAMPLER_SET[358]: 1094  LLC: 2048
SAMPLER_SET[358]: 1094
Assign SAMPLER_SET[359]: 2010  LLC: 2048
SAMPLER_SET[359]: 2010
Assign SAMPLER_SET[360]: 918  LLC: 2048
SAMPLER_SET[360]: 918
Assign SAMPLER_SET[361]: 1736  LLC: 2048
SAMPLER_SET[361]: 1736
Assign SAMPLER_SET[362]: 1661  LLC: 2048
SAMPLER_SET[362]: 1661
Assign SAMPLER_SET[363]: 540  LLC: 2048
SAMPLER_SET[363]: 540
Assign SAMPLER_SET[364]: 2001  LLC: 2048
SAMPLER_SET[364]: 2001
Assign SAMPLER_SET[365]: 517  LLC: 2048
SAMPLER_SET[365]: 517
Assign SAMPLER_SET[366]: 318  LLC: 2048
SAMPLER_SET[366]: 318
Assign SAMPLER_SET[367]: 229  LLC: 2048
SAMPLER_SET[367]: 229
Assign SAMPLER_SET[368]: 1170  LLC: 2048
SAMPLER_SET[368]: 1170
Assign SAMPLER_SET[369]: 1904  LLC: 2048
Assign SAMPLER_SET[369]: 835  LLC: 2048
SAMPLER_SET[369]: 835
Assign SAMPLER_SET[370]: 607  LLC: 2048
Assign SAMPLER_SET[370]: 620  LLC: 2048
SAMPLER_SET[370]: 620
Assign SAMPLER_SET[371]: 515  LLC: 2048
SAMPLER_SET[371]: 515
Assign SAMPLER_SET[372]: 773  LLC: 2048
Assign SAMPLER_SET[372]: 691  LLC: 2048
SAMPLER_SET[372]: 691
Assign SAMPLER_SET[373]: 1515  LLC: 2048
SAMPLER_SET[373]: 1515
Assign SAMPLER_SET[374]: 435  LLC: 2048
SAMPLER_SET[374]: 435
Assign SAMPLER_SET[375]: 288  LLC: 2048
SAMPLER_SET[375]: 288
Assign SAMPLER_SET[376]: 1333  LLC: 2048
SAMPLER_SET[376]: 1333
Assign SAMPLER_SET[377]: 1869  LLC: 2048
SAMPLER_SET[377]: 1869
Assign SAMPLER_SET[378]: 1662  LLC: 2048
Assign SAMPLER_SET[378]: 1126  LLC: 2048
SAMPLER_SET[378]: 1126
Assign SAMPLER_SET[379]: 1104  LLC: 2048
SAMPLER_SET[379]: 1104
Assign SAMPLER_SET[380]: 513  LLC: 2048
Assign SAMPLER_SET[380]: 54  LLC: 2048
SAMPLER_SET[380]: 54
Assign SAMPLER_SET[381]: 960  LLC: 2048
SAMPLER_SET[381]: 960
Assign SAMPLER_SET[382]: 1075  LLC: 2048
Assign SAMPLER_SET[382]: 2017  LLC: 2048
SAMPLER_SET[382]: 2017
Assign SAMPLER_SET[383]: 1807  LLC: 2048
SAMPLER_SET[383]: 1807
Assign SAMPLER_SET[384]: 457  LLC: 2048
SAMPLER_SET[384]: 457
Assign SAMPLER_SET[385]: 1080  LLC: 2048
Assign SAMPLER_SET[385]: 1070  LLC: 2048
SAMPLER_SET[385]: 1070
Assign SAMPLER_SET[386]: 233  LLC: 2048
SAMPLER_SET[386]: 233
Assign SAMPLER_SET[387]: 1577  LLC: 2048
SAMPLER_SET[387]: 1577
Assign SAMPLER_SET[388]: 793  LLC: 2048
SAMPLER_SET[388]: 793
Assign SAMPLER_SET[389]: 591  LLC: 2048
SAMPLER_SET[389]: 591
Assign SAMPLER_SET[390]: 1886  LLC: 2048
SAMPLER_SET[390]: 1886
Assign SAMPLER_SET[391]: 177  LLC: 2048
Assign SAMPLER_SET[391]: 465  LLC: 2048
SAMPLER_SET[391]: 465
Assign SAMPLER_SET[392]: 1097  LLC: 2048
SAMPLER_SET[392]: 1097
Assign SAMPLER_SET[393]: 651  LLC: 2048
SAMPLER_SET[393]: 651
Assign SAMPLER_SET[394]: 571  LLC: 2048
SAMPLER_SET[394]: 571
Assign SAMPLER_SET[395]: 339  LLC: 2048
SAMPLER_SET[395]: 339
Assign SAMPLER_SET[396]: 1277  LLC: 2048
SAMPLER_SET[396]: 1277
Assign SAMPLER_SET[397]: 1183  LLC: 2048
SAMPLER_SET[397]: 1183
Assign SAMPLER_SET[398]: 1855  LLC: 2048
SAMPLER_SET[398]: 1855
Assign SAMPLER_SET[399]: 1774  LLC: 2048
SAMPLER_SET[399]: 1774
Assign SAMPLER_SET[400]: 549  LLC: 2048
SAMPLER_SET[400]: 549
Assign SAMPLER_SET[401]: 549  LLC: 2048
Assign SAMPLER_SET[401]: 53  LLC: 2048
SAMPLER_SET[401]: 53
Assign SAMPLER_SET[402]: 891  LLC: 2048
SAMPLER_SET[402]: 891
Assign SAMPLER_SET[403]: 525  LLC: 2048
SAMPLER_SET[403]: 525
Assign SAMPLER_SET[404]: 785  LLC: 2048
SAMPLER_SET[404]: 785
Assign SAMPLER_SET[405]: 943  LLC: 2048
SAMPLER_SET[405]: 943
Assign SAMPLER_SET[406]: 332  LLC: 2048
SAMPLER_SET[406]: 332
Assign SAMPLER_SET[407]: 273  LLC: 2048
SAMPLER_SET[407]: 273
Assign SAMPLER_SET[408]: 140  LLC: 2048
SAMPLER_SET[408]: 140
Assign SAMPLER_SET[409]: 1586  LLC: 2048
Assign SAMPLER_SET[409]: 1236  LLC: 2048
SAMPLER_SET[409]: 1236
Assign SAMPLER_SET[410]: 730  LLC: 2048
SAMPLER_SET[410]: 730
Assign SAMPLER_SET[411]: 895  LLC: 2048
SAMPLER_SET[411]: 895
Assign SAMPLER_SET[412]: 984  LLC: 2048
SAMPLER_SET[412]: 984
Assign SAMPLER_SET[413]: 1046  LLC: 2048
SAMPLER_SET[413]: 1046
Assign SAMPLER_SET[414]: 855  LLC: 2048
SAMPLER_SET[414]: 855
Assign SAMPLER_SET[415]: 2017  LLC: 2048
Assign SAMPLER_SET[415]: 1958  LLC: 2048
SAMPLER_SET[415]: 1958
Assign SAMPLER_SET[416]: 206  LLC: 2048
SAMPLER_SET[416]: 206
Assign SAMPLER_SET[417]: 893  LLC: 2048
SAMPLER_SET[417]: 893
Assign SAMPLER_SET[418]: 193  LLC: 2048
SAMPLER_SET[418]: 193
Assign SAMPLER_SET[419]: 1198  LLC: 2048
SAMPLER_SET[419]: 1198
Assign SAMPLER_SET[420]: 354  LLC: 2048
SAMPLER_SET[420]: 354
Assign SAMPLER_SET[421]: 1471  LLC: 2048
SAMPLER_SET[421]: 1471
Assign SAMPLER_SET[422]: 275  LLC: 2048
Assign SAMPLER_SET[422]: 1252  LLC: 2048
SAMPLER_SET[422]: 1252
Assign SAMPLER_SET[423]: 1159  LLC: 2048
Assign SAMPLER_SET[423]: 1612  LLC: 2048
SAMPLER_SET[423]: 1612
Assign SAMPLER_SET[424]: 1338  LLC: 2048
Assign SAMPLER_SET[424]: 449  LLC: 2048
SAMPLER_SET[424]: 449
Assign SAMPLER_SET[425]: 947  LLC: 2048
SAMPLER_SET[425]: 947
Assign SAMPLER_SET[426]: 780  LLC: 2048
SAMPLER_SET[426]: 780
Assign SAMPLER_SET[427]: 345  LLC: 2048
SAMPLER_SET[427]: 345
Assign SAMPLER_SET[428]: 665  LLC: 2048
SAMPLER_SET[428]: 665
Assign SAMPLER_SET[429]: 71  LLC: 2048
Assign SAMPLER_SET[429]: 1880  LLC: 2048
SAMPLER_SET[429]: 1880
Assign SAMPLER_SET[430]: 90  LLC: 2048
Assign SAMPLER_SET[430]: 1213  LLC: 2048
SAMPLER_SET[430]: 1213
Assign SAMPLER_SET[431]: 1912  LLC: 2048
Assign SAMPLER_SET[431]: 1916  LLC: 2048
SAMPLER_SET[431]: 1916
Assign SAMPLER_SET[432]: 1978  LLC: 2048
SAMPLER_SET[432]: 1978
Assign SAMPLER_SET[433]: 336  LLC: 2048
Assign SAMPLER_SET[433]: 257  LLC: 2048
Assign SAMPLER_SET[433]: 2029  LLC: 2048
SAMPLER_SET[433]: 2029
Assign SAMPLER_SET[434]: 1051  LLC: 2048
SAMPLER_SET[434]: 1051
Assign SAMPLER_SET[435]: 1258  LLC: 2048
SAMPLER_SET[435]: 1258
Assign SAMPLER_SET[436]: 1162  LLC: 2048
SAMPLER_SET[436]: 1162
Assign SAMPLER_SET[437]: 1097  LLC: 2048
Assign SAMPLER_SET[437]: 648  LLC: 2048
Assign SAMPLER_SET[437]: 1262  LLC: 2048
SAMPLER_SET[437]: 1262
Assign SAMPLER_SET[438]: 470  LLC: 2048
SAMPLER_SET[438]: 470
Assign SAMPLER_SET[439]: 532  LLC: 2048
SAMPLER_SET[439]: 532
Assign SAMPLER_SET[440]: 645  LLC: 2048
Assign SAMPLER_SET[440]: 1707  LLC: 2048
Assign SAMPLER_SET[440]: 1968  LLC: 2048
SAMPLER_SET[440]: 1968
Assign SAMPLER_SET[441]: 812  LLC: 2048
SAMPLER_SET[441]: 812
Assign SAMPLER_SET[442]: 1246  LLC: 2048
SAMPLER_SET[442]: 1246
Assign SAMPLER_SET[443]: 1077  LLC: 2048
SAMPLER_SET[443]: 1077
Assign SAMPLER_SET[444]: 1427  LLC: 2048
SAMPLER_SET[444]: 1427
Assign SAMPLER_SET[445]: 1041  LLC: 2048
SAMPLER_SET[445]: 1041
Assign SAMPLER_SET[446]: 813  LLC: 2048
SAMPLER_SET[446]: 813
Assign SAMPLER_SET[447]: 769  LLC: 2048
Assign SAMPLER_SET[447]: 1052  LLC: 2048
SAMPLER_SET[447]: 1052
Assign SAMPLER_SET[448]: 471  LLC: 2048
SAMPLER_SET[448]: 471
Assign SAMPLER_SET[449]: 1064  LLC: 2048
SAMPLER_SET[449]: 1064
Assign SAMPLER_SET[450]: 67  LLC: 2048
Assign SAMPLER_SET[450]: 48  LLC: 2048
SAMPLER_SET[450]: 48
Assign SAMPLER_SET[451]: 999  LLC: 2048
SAMPLER_SET[451]: 999
Assign SAMPLER_SET[452]: 176  LLC: 2048
SAMPLER_SET[452]: 176
Assign SAMPLER_SET[453]: 1800  LLC: 2048
SAMPLER_SET[453]: 1800
Assign SAMPLER_SET[454]: 1261  LLC: 2048
SAMPLER_SET[454]: 1261
Assign SAMPLER_SET[455]: 1401  LLC: 2048
SAMPLER_SET[455]: 1401
Assign SAMPLER_SET[456]: 1433  LLC: 2048
SAMPLER_SET[456]: 1433
Assign SAMPLER_SET[457]: 1043  LLC: 2048
SAMPLER_SET[457]: 1043
Assign SAMPLER_SET[458]: 81  LLC: 2048
SAMPLER_SET[458]: 81
Assign SAMPLER_SET[459]: 722  LLC: 2048
SAMPLER_SET[459]: 722
Assign SAMPLER_SET[460]: 1594  LLC: 2048
SAMPLER_SET[460]: 1594
Assign SAMPLER_SET[461]: 887  LLC: 2048
SAMPLER_SET[461]: 887
Assign SAMPLER_SET[462]: 1709  LLC: 2048
SAMPLER_SET[462]: 1709
Assign SAMPLER_SET[463]: 1597  LLC: 2048
SAMPLER_SET[463]: 1597
Assign SAMPLER_SET[464]: 948  LLC: 2048
SAMPLER_SET[464]: 948
Assign SAMPLER_SET[465]: 1016  LLC: 2048
SAMPLER_SET[465]: 1016
Assign SAMPLER_SET[466]: 199  LLC: 2048
SAMPLER_SET[466]: 199
Assign SAMPLER_SET[467]: 202  LLC: 2048
SAMPLER_SET[467]: 202
Assign SAMPLER_SET[468]: 1283  LLC: 2048
SAMPLER_SET[468]: 1283
Assign SAMPLER_SET[469]: 1058  LLC: 2048
SAMPLER_SET[469]: 1058
Assign SAMPLER_SET[470]: 210  LLC: 2048
SAMPLER_SET[470]: 210
Assign SAMPLER_SET[471]: 713  LLC: 2048
SAMPLER_SET[471]: 713
Assign SAMPLER_SET[472]: 966  LLC: 2048
SAMPLER_SET[472]: 966
Assign SAMPLER_SET[473]: 1319  LLC: 2048
SAMPLER_SET[473]: 1319
Assign SAMPLER_SET[474]: 527  LLC: 2048
Assign SAMPLER_SET[474]: 4  LLC: 2048
Assign SAMPLER_SET[474]: 462  LLC: 2048
SAMPLER_SET[474]: 462
Assign SAMPLER_SET[475]: 1914  LLC: 2048
SAMPLER_SET[475]: 1914
Assign SAMPLER_SET[476]: 1855  LLC: 2048
Assign SAMPLER_SET[476]: 960  LLC: 2048
Assign SAMPLER_SET[476]: 872  LLC: 2048
SAMPLER_SET[476]: 872
Assign SAMPLER_SET[477]: 1324  LLC: 2048
SAMPLER_SET[477]: 1324
Assign SAMPLER_SET[478]: 975  LLC: 2048
SAMPLER_SET[478]: 975
Assign SAMPLER_SET[479]: 114  LLC: 2048
SAMPLER_SET[479]: 114
Assign SAMPLER_SET[480]: 618  LLC: 2048
SAMPLER_SET[480]: 618
Assign SAMPLER_SET[481]: 1545  LLC: 2048
Assign SAMPLER_SET[481]: 962  LLC: 2048
SAMPLER_SET[481]: 962
Assign SAMPLER_SET[482]: 1858  LLC: 2048
SAMPLER_SET[482]: 1858
Assign SAMPLER_SET[483]: 1536  LLC: 2048
SAMPLER_SET[483]: 1536
Assign SAMPLER_SET[484]: 370  LLC: 2048
SAMPLER_SET[484]: 370
Assign SAMPLER_SET[485]: 1630  LLC: 2048
SAMPLER_SET[485]: 1630
Assign SAMPLER_SET[486]: 833  LLC: 2048
SAMPLER_SET[486]: 833
Assign SAMPLER_SET[487]: 820  LLC: 2048
SAMPLER_SET[487]: 820
Assign SAMPLER_SET[488]: 504  LLC: 2048
SAMPLER_SET[488]: 504
Assign SAMPLER_SET[489]: 1942  LLC: 2048
SAMPLER_SET[489]: 1942
Assign SAMPLER_SET[490]: 1129  LLC: 2048
SAMPLER_SET[490]: 1129
Assign SAMPLER_SET[491]: 575  LLC: 2048
SAMPLER_SET[491]: 575
Assign SAMPLER_SET[492]: 1725  LLC: 2048
SAMPLER_SET[492]: 1725
Assign SAMPLER_SET[493]: 1082  LLC: 2048
SAMPLER_SET[493]: 1082
Assign SAMPLER_SET[494]: 1624  LLC: 2048
SAMPLER_SET[494]: 1624
Assign SAMPLER_SET[495]: 1169  LLC: 2048
SAMPLER_SET[495]: 1169
Assign SAMPLER_SET[496]: 1675  LLC: 2048
SAMPLER_SET[496]: 1675
Assign SAMPLER_SET[497]: 1249  LLC: 2048
Assign SAMPLER_SET[497]: 1740  LLC: 2048
Assign SAMPLER_SET[497]: 1954  LLC: 2048
Assign SAMPLER_SET[497]: 177  LLC: 2048
Assign SAMPLER_SET[497]: 914  LLC: 2048
Assign SAMPLER_SET[497]: 2013  LLC: 2048
SAMPLER_SET[497]: 2013
Assign SAMPLER_SET[498]: 119  LLC: 2048
SAMPLER_SET[498]: 119
Assign SAMPLER_SET[499]: 1953  LLC: 2048
SAMPLER_SET[499]: 1953
Assign SAMPLER_SET[500]: 53  LLC: 2048
Assign SAMPLER_SET[500]: 510  LLC: 2048
SAMPLER_SET[500]: 510
Assign SAMPLER_SET[501]: 1011  LLC: 2048
SAMPLER_SET[501]: 1011
Assign SAMPLER_SET[502]: 331  LLC: 2048
Assign SAMPLER_SET[502]: 1980  LLC: 2048
SAMPLER_SET[502]: 1980
Assign SAMPLER_SET[503]: 433  LLC: 2048
SAMPLER_SET[503]: 433
Assign SAMPLER_SET[504]: 2019  LLC: 2048
SAMPLER_SET[504]: 2019
Assign SAMPLER_SET[505]: 311  LLC: 2048
SAMPLER_SET[505]: 311
Assign SAMPLER_SET[506]: 529  LLC: 2048
SAMPLER_SET[506]: 529
Assign SAMPLER_SET[507]: 1293  LLC: 2048
Assign SAMPLER_SET[507]: 199  LLC: 2048
Assign SAMPLER_SET[507]: 101  LLC: 2048
SAMPLER_SET[507]: 101
Assign SAMPLER_SET[508]: 702  LLC: 2048
Assign SAMPLER_SET[508]: 1265  LLC: 2048
SAMPLER_SET[508]: 1265
Assign SAMPLER_SET[509]: 97  LLC: 2048
Assign SAMPLER_SET[509]: 1765  LLC: 2048
SAMPLER_SET[509]: 1765
Assign SAMPLER_SET[510]: 94  LLC: 2048
Assign SAMPLER_SET[510]: 1542  LLC: 2048
SAMPLER_SET[510]: 1542
Assign SAMPLER_SET[511]: 255  LLC: 2048
SAMPLER_SET[511]: 255
Assign SAMPLER_SET[512]: 821  LLC: 2048
SAMPLER_SET[512]: 821
Assign SAMPLER_SET[513]: 1735  LLC: 2048
SAMPLER_SET[513]: 1735
Assign SAMPLER_SET[514]: 1398  LLC: 2048
SAMPLER_SET[514]: 1398
Assign SAMPLER_SET[515]: 393  LLC: 2048
SAMPLER_SET[515]: 393
Assign SAMPLER_SET[516]: 861  LLC: 2048
SAMPLER_SET[516]: 861
Assign SAMPLER_SET[517]: 2036  LLC: 2048
SAMPLER_SET[517]: 2036
Assign SAMPLER_SET[518]: 1390  LLC: 2048
SAMPLER_SET[518]: 1390
Assign SAMPLER_SET[519]: 1610  LLC: 2048
SAMPLER_SET[519]: 1610
Assign SAMPLER_SET[520]: 972  LLC: 2048
SAMPLER_SET[520]: 972
Assign SAMPLER_SET[521]: 1973  LLC: 2048
SAMPLER_SET[521]: 1973
Assign SAMPLER_SET[522]: 1364  LLC: 2048
SAMPLER_SET[522]: 1364
Assign SAMPLER_SET[523]: 638  LLC: 2048
SAMPLER_SET[523]: 638
Assign SAMPLER_SET[524]: 2033  LLC: 2048
Assign SAMPLER_SET[524]: 1557  LLC: 2048
Assign SAMPLER_SET[524]: 456  LLC: 2048
SAMPLER_SET[524]: 456
Assign SAMPLER_SET[525]: 1696  LLC: 2048
SAMPLER_SET[525]: 1696
Assign SAMPLER_SET[526]: 153  LLC: 2048
SAMPLER_SET[526]: 153
Assign SAMPLER_SET[527]: 1167  LLC: 2048
SAMPLER_SET[527]: 1167
Assign SAMPLER_SET[528]: 92  LLC: 2048
Assign SAMPLER_SET[528]: 1904  LLC: 2048
Assign SAMPLER_SET[528]: 1035  LLC: 2048
SAMPLER_SET[528]: 1035
Assign SAMPLER_SET[529]: 495  LLC: 2048
SAMPLER_SET[529]: 495
Assign SAMPLER_SET[530]: 788  LLC: 2048
SAMPLER_SET[530]: 788
Assign SAMPLER_SET[531]: 454  LLC: 2048
Assign SAMPLER_SET[531]: 997  LLC: 2048
SAMPLER_SET[531]: 997
Assign SAMPLER_SET[532]: 266  LLC: 2048
SAMPLER_SET[532]: 266
Assign SAMPLER_SET[533]: 1948  LLC: 2048
SAMPLER_SET[533]: 1948
Assign SAMPLER_SET[534]: 1817  LLC: 2048
SAMPLER_SET[534]: 1817
Assign SAMPLER_SET[535]: 1204  LLC: 2048
SAMPLER_SET[535]: 1204
Assign SAMPLER_SET[536]: 1565  LLC: 2048
SAMPLER_SET[536]: 1565
Assign SAMPLER_SET[537]: 1612  LLC: 2048
Assign SAMPLER_SET[537]: 1742  LLC: 2048
SAMPLER_SET[537]: 1742
Assign SAMPLER_SET[538]: 854  LLC: 2048
SAMPLER_SET[538]: 854
Assign SAMPLER_SET[539]: 1798  LLC: 2048
SAMPLER_SET[539]: 1798
Assign SAMPLER_SET[540]: 1244  LLC: 2048
Assign SAMPLER_SET[540]: 66  LLC: 2048
SAMPLER_SET[540]: 66
Assign SAMPLER_SET[541]: 1041  LLC: 2048
Assign SAMPLER_SET[541]: 549  LLC: 2048
Assign SAMPLER_SET[541]: 231  LLC: 2048
SAMPLER_SET[541]: 231
Assign SAMPLER_SET[542]: 406  LLC: 2048
SAMPLER_SET[542]: 406
Assign SAMPLER_SET[543]: 1903  LLC: 2048
SAMPLER_SET[543]: 1903
Assign SAMPLER_SET[544]: 15  LLC: 2048
Assign SAMPLER_SET[544]: 1569  LLC: 2048
SAMPLER_SET[544]: 1569
Assign SAMPLER_SET[545]: 1853  LLC: 2048
SAMPLER_SET[545]: 1853
Assign SAMPLER_SET[546]: 223  LLC: 2048
SAMPLER_SET[546]: 223
Assign SAMPLER_SET[547]: 1017  LLC: 2048
SAMPLER_SET[547]: 1017
Assign SAMPLER_SET[548]: 1111  LLC: 2048
SAMPLER_SET[548]: 1111
Assign SAMPLER_SET[549]: 71  LLC: 2048
Assign SAMPLER_SET[549]: 781  LLC: 2048
SAMPLER_SET[549]: 781
Assign SAMPLER_SET[550]: 1759  LLC: 2048
SAMPLER_SET[550]: 1759
Assign SAMPLER_SET[551]: 299  LLC: 2048
SAMPLER_SET[551]: 299
Assign SAMPLER_SET[552]: 874  LLC: 2048
SAMPLER_SET[552]: 874
Assign SAMPLER_SET[553]: 1532  LLC: 2048
SAMPLER_SET[553]: 1532
Assign SAMPLER_SET[554]: 375  LLC: 2048
SAMPLER_SET[554]: 375
Assign SAMPLER_SET[555]: 397  LLC: 2048
SAMPLER_SET[555]: 397
Assign SAMPLER_SET[556]: 213  LLC: 2048
SAMPLER_SET[556]: 213
Assign SAMPLER_SET[557]: 745  LLC: 2048
SAMPLER_SET[557]: 745
Assign SAMPLER_SET[558]: 217  LLC: 2048
Assign SAMPLER_SET[558]: 1785  LLC: 2048
SAMPLER_SET[558]: 1785
Assign SAMPLER_SET[559]: 1205  LLC: 2048
SAMPLER_SET[559]: 1205
Assign SAMPLER_SET[560]: 480  LLC: 2048
SAMPLER_SET[560]: 480
Assign SAMPLER_SET[561]: 491  LLC: 2048
Assign SAMPLER_SET[561]: 1138  LLC: 2048
SAMPLER_SET[561]: 1138
Assign SAMPLER_SET[562]: 1668  LLC: 2048
SAMPLER_SET[562]: 1668
Assign SAMPLER_SET[563]: 1306  LLC: 2048
SAMPLER_SET[563]: 1306
Assign SAMPLER_SET[564]: 1934  LLC: 2048
SAMPLER_SET[564]: 1934
Assign SAMPLER_SET[565]: 1858  LLC: 2048
Assign SAMPLER_SET[565]: 276  LLC: 2048
SAMPLER_SET[565]: 276
Assign SAMPLER_SET[566]: 1565  LLC: 2048
Assign SAMPLER_SET[566]: 1930  LLC: 2048
SAMPLER_SET[566]: 1930
Assign SAMPLER_SET[567]: 1902  LLC: 2048
SAMPLER_SET[567]: 1902
Assign SAMPLER_SET[568]: 1887  LLC: 2048
SAMPLER_SET[568]: 1887
Assign SAMPLER_SET[569]: 146  LLC: 2048
SAMPLER_SET[569]: 146
Assign SAMPLER_SET[570]: 570  LLC: 2048
SAMPLER_SET[570]: 570
Assign SAMPLER_SET[571]: 1019  LLC: 2048
SAMPLER_SET[571]: 1019
Assign SAMPLER_SET[572]: 523  LLC: 2048
SAMPLER_SET[572]: 523
Assign SAMPLER_SET[573]: 1765  LLC: 2048
Assign SAMPLER_SET[573]: 246  LLC: 2048
SAMPLER_SET[573]: 246
Assign SAMPLER_SET[574]: 1764  LLC: 2048
SAMPLER_SET[574]: 1764
Assign SAMPLER_SET[575]: 448  LLC: 2048
SAMPLER_SET[575]: 448
Assign SAMPLER_SET[576]: 1183  LLC: 2048
Assign SAMPLER_SET[576]: 1861  LLC: 2048
SAMPLER_SET[576]: 1861
Assign SAMPLER_SET[577]: 1238  LLC: 2048
Assign SAMPLER_SET[577]: 554  LLC: 2048
Assign SAMPLER_SET[577]: 643  LLC: 2048
SAMPLER_SET[577]: 643
Assign SAMPLER_SET[578]: 703  LLC: 2048
Assign SAMPLER_SET[578]: 1201  LLC: 2048
Assign SAMPLER_SET[578]: 461  LLC: 2048
SAMPLER_SET[578]: 461
Assign SAMPLER_SET[579]: 106  LLC: 2048
SAMPLER_SET[579]: 106
Assign SAMPLER_SET[580]: 1476  LLC: 2048
SAMPLER_SET[580]: 1476
Assign SAMPLER_SET[581]: 703  LLC: 2048
Assign SAMPLER_SET[581]: 652  LLC: 2048
SAMPLER_SET[581]: 652
Assign SAMPLER_SET[582]: 222  LLC: 2048
SAMPLER_SET[582]: 222
Assign SAMPLER_SET[583]: 223  LLC: 2048
Assign SAMPLER_SET[583]: 946  LLC: 2048
SAMPLER_SET[583]: 946
Assign SAMPLER_SET[584]: 1783  LLC: 2048
SAMPLER_SET[584]: 1783
Assign SAMPLER_SET[585]: 633  LLC: 2048
Assign SAMPLER_SET[585]: 1783  LLC: 2048
Assign SAMPLER_SET[585]: 864  LLC: 2048
SAMPLER_SET[585]: 864
Assign SAMPLER_SET[586]: 87  LLC: 2048
SAMPLER_SET[586]: 87
Assign SAMPLER_SET[587]: 764  LLC: 2048
SAMPLER_SET[587]: 764
Assign SAMPLER_SET[588]: 59  LLC: 2048
SAMPLER_SET[588]: 59
Assign SAMPLER_SET[589]: 829  LLC: 2048
Assign SAMPLER_SET[589]: 379  LLC: 2048
SAMPLER_SET[589]: 379
Assign SAMPLER_SET[590]: 46  LLC: 2048
SAMPLER_SET[590]: 46
Assign SAMPLER_SET[591]: 1995  LLC: 2048
SAMPLER_SET[591]: 1995
Assign SAMPLER_SET[592]: 1180  LLC: 2048
SAMPLER_SET[592]: 1180
Assign SAMPLER_SET[593]: 577  LLC: 2048
SAMPLER_SET[593]: 577
Assign SAMPLER_SET[594]: 635  LLC: 2048
Assign SAMPLER_SET[594]: 39  LLC: 2048
SAMPLER_SET[594]: 39
Assign SAMPLER_SET[595]: 677  LLC: 2048
SAMPLER_SET[595]: 677
Assign SAMPLER_SET[596]: 2019  LLC: 2048
Assign SAMPLER_SET[596]: 1352  LLC: 2048
Assign SAMPLER_SET[596]: 600  LLC: 2048
SAMPLER_SET[596]: 600
Assign SAMPLER_SET[597]: 21  LLC: 2048
SAMPLER_SET[597]: 21
Assign SAMPLER_SET[598]: 1543  LLC: 2048
SAMPLER_SET[598]: 1543
Assign SAMPLER_SET[599]: 279  LLC: 2048
SAMPLER_SET[599]: 279
Assign SAMPLER_SET[600]: 992  LLC: 2048
SAMPLER_SET[600]: 992
Assign SAMPLER_SET[601]: 1209  LLC: 2048
SAMPLER_SET[601]: 1209
Assign SAMPLER_SET[602]: 1157  LLC: 2048
SAMPLER_SET[602]: 1157
Assign SAMPLER_SET[603]: 863  LLC: 2048
SAMPLER_SET[603]: 863
Assign SAMPLER_SET[604]: 1891  LLC: 2048
SAMPLER_SET[604]: 1891
Assign SAMPLER_SET[605]: 1704  LLC: 2048
Assign SAMPLER_SET[605]: 1526  LLC: 2048
SAMPLER_SET[605]: 1526
Assign SAMPLER_SET[606]: 41  LLC: 2048
SAMPLER_SET[606]: 41
Assign SAMPLER_SET[607]: 1042  LLC: 2048
SAMPLER_SET[607]: 1042
Assign SAMPLER_SET[608]: 835  LLC: 2048
Assign SAMPLER_SET[608]: 768  LLC: 2048
SAMPLER_SET[608]: 768
Assign SAMPLER_SET[609]: 362  LLC: 2048
SAMPLER_SET[609]: 362
Assign SAMPLER_SET[610]: 2011  LLC: 2048
SAMPLER_SET[610]: 2011
Assign SAMPLER_SET[611]: 1006  LLC: 2048
SAMPLER_SET[611]: 1006
Assign SAMPLER_SET[612]: 1636  LLC: 2048
SAMPLER_SET[612]: 1636
Assign SAMPLER_SET[613]: 36  LLC: 2048
SAMPLER_SET[613]: 36
Assign SAMPLER_SET[614]: 82  LLC: 2048
SAMPLER_SET[614]: 82
Assign SAMPLER_SET[615]: 651  LLC: 2048
Assign SAMPLER_SET[615]: 1476  LLC: 2048
Assign SAMPLER_SET[615]: 827  LLC: 2048
SAMPLER_SET[615]: 827
Assign SAMPLER_SET[616]: 1629  LLC: 2048
SAMPLER_SET[616]: 1629
Assign SAMPLER_SET[617]: 443  LLC: 2048
SAMPLER_SET[617]: 443
Assign SAMPLER_SET[618]: 821  LLC: 2048
Assign SAMPLER_SET[618]: 24  LLC: 2048
SAMPLER_SET[618]: 24
Assign SAMPLER_SET[619]: 162  LLC: 2048
SAMPLER_SET[619]: 162
Assign SAMPLER_SET[620]: 1235  LLC: 2048
SAMPLER_SET[620]: 1235
Assign SAMPLER_SET[621]: 905  LLC: 2048
SAMPLER_SET[621]: 905
Assign SAMPLER_SET[622]: 255  LLC: 2048
Assign SAMPLER_SET[622]: 178  LLC: 2048
Assign SAMPLER_SET[622]: 928  LLC: 2048
SAMPLER_SET[622]: 928
Assign SAMPLER_SET[623]: 1369  LLC: 2048
SAMPLER_SET[623]: 1369
Assign SAMPLER_SET[624]: 1328  LLC: 2048
SAMPLER_SET[624]: 1328
Assign SAMPLER_SET[625]: 1778  LLC: 2048
SAMPLER_SET[625]: 1778
Assign SAMPLER_SET[626]: 1499  LLC: 2048
SAMPLER_SET[626]: 1499
Assign SAMPLER_SET[627]: 1237  LLC: 2048
SAMPLER_SET[627]: 1237
Assign SAMPLER_SET[628]: 1729  LLC: 2048
SAMPLER_SET[628]: 1729
Assign SAMPLER_SET[629]: 333  LLC: 2048
SAMPLER_SET[629]: 333
Assign SAMPLER_SET[630]: 618  LLC: 2048
Assign SAMPLER_SET[630]: 75  LLC: 2048
SAMPLER_SET[630]: 75
Assign SAMPLER_SET[631]: 566  LLC: 2048
SAMPLER_SET[631]: 566
Assign SAMPLER_SET[632]: 156  LLC: 2048
SAMPLER_SET[632]: 156
Assign SAMPLER_SET[633]: 1629  LLC: 2048
Assign SAMPLER_SET[633]: 376  LLC: 2048
SAMPLER_SET[633]: 376
Assign SAMPLER_SET[634]: 998  LLC: 2048
SAMPLER_SET[634]: 998
Assign SAMPLER_SET[635]: 208  LLC: 2048
SAMPLER_SET[635]: 208
Assign SAMPLER_SET[636]: 1955  LLC: 2048
SAMPLER_SET[636]: 1955
Assign SAMPLER_SET[637]: 1938  LLC: 2048
SAMPLER_SET[637]: 1938
Assign SAMPLER_SET[638]: 1805  LLC: 2048
SAMPLER_SET[638]: 1805
Assign SAMPLER_SET[639]: 2021  LLC: 2048
SAMPLER_SET[639]: 2021
Assign SAMPLER_SET[640]: 1936  LLC: 2048
SAMPLER_SET[640]: 1936
Assign SAMPLER_SET[641]: 1553  LLC: 2048
SAMPLER_SET[641]: 1553
Assign SAMPLER_SET[642]: 688  LLC: 2048
SAMPLER_SET[642]: 688
Assign SAMPLER_SET[643]: 1926  LLC: 2048
SAMPLER_SET[643]: 1926
Assign SAMPLER_SET[644]: 271  LLC: 2048
SAMPLER_SET[644]: 271
Assign SAMPLER_SET[645]: 1089  LLC: 2048
SAMPLER_SET[645]: 1089
Assign SAMPLER_SET[646]: 52  LLC: 2048
SAMPLER_SET[646]: 52
Assign SAMPLER_SET[647]: 1408  LLC: 2048
Assign SAMPLER_SET[647]: 1702  LLC: 2048
Assign SAMPLER_SET[647]: 393  LLC: 2048
Assign SAMPLER_SET[647]: 1981  LLC: 2048
SAMPLER_SET[647]: 1981
Assign SAMPLER_SET[648]: 1769  LLC: 2048
SAMPLER_SET[648]: 1769
Assign SAMPLER_SET[649]: 1071  LLC: 2048
SAMPLER_SET[649]: 1071
Assign SAMPLER_SET[650]: 632  LLC: 2048
SAMPLER_SET[650]: 632
Assign SAMPLER_SET[651]: 1607  LLC: 2048
SAMPLER_SET[651]: 1607
Assign SAMPLER_SET[652]: 525  LLC: 2048
Assign SAMPLER_SET[652]: 80  LLC: 2048
SAMPLER_SET[652]: 80
Assign SAMPLER_SET[653]: 661  LLC: 2048
Assign SAMPLER_SET[653]: 391  LLC: 2048
SAMPLER_SET[653]: 391
Assign SAMPLER_SET[654]: 795  LLC: 2048
SAMPLER_SET[654]: 795
Assign SAMPLER_SET[655]: 447  LLC: 2048
SAMPLER_SET[655]: 447
Assign SAMPLER_SET[656]: 1763  LLC: 2048
Assign SAMPLER_SET[656]: 1407  LLC: 2048
SAMPLER_SET[656]: 1407
Assign SAMPLER_SET[657]: 1940  LLC: 2048
Assign SAMPLER_SET[657]: 1079  LLC: 2048
SAMPLER_SET[657]: 1079
Assign SAMPLER_SET[658]: 1334  LLC: 2048
SAMPLER_SET[658]: 1334
Assign SAMPLER_SET[659]: 2020  LLC: 2048
SAMPLER_SET[659]: 2020
Assign SAMPLER_SET[660]: 1135  LLC: 2048
SAMPLER_SET[660]: 1135
Assign SAMPLER_SET[661]: 313  LLC: 2048
SAMPLER_SET[661]: 313
Assign SAMPLER_SET[662]: 1080  LLC: 2048
Assign SAMPLER_SET[662]: 1327  LLC: 2048
SAMPLER_SET[662]: 1327
Assign SAMPLER_SET[663]: 780  LLC: 2048
Assign SAMPLER_SET[663]: 131  LLC: 2048
Assign SAMPLER_SET[663]: 58  LLC: 2048
SAMPLER_SET[663]: 58
Assign SAMPLER_SET[664]: 901  LLC: 2048
Assign SAMPLER_SET[664]: 223  LLC: 2048
Assign SAMPLER_SET[664]: 1105  LLC: 2048
SAMPLER_SET[664]: 1105
Assign SAMPLER_SET[665]: 188  LLC: 2048
SAMPLER_SET[665]: 188
Assign SAMPLER_SET[666]: 1864  LLC: 2048
SAMPLER_SET[666]: 1864
Assign SAMPLER_SET[667]: 1497  LLC: 2048
SAMPLER_SET[667]: 1497
Assign SAMPLER_SET[668]: 1366  LLC: 2048
SAMPLER_SET[668]: 1366
Assign SAMPLER_SET[669]: 699  LLC: 2048
Assign SAMPLER_SET[669]: 1401  LLC: 2048
Assign SAMPLER_SET[669]: 1429  LLC: 2048
SAMPLER_SET[669]: 1429
Assign SAMPLER_SET[670]: 633  LLC: 2048
Assign SAMPLER_SET[670]: 957  LLC: 2048
SAMPLER_SET[670]: 957
Assign SAMPLER_SET[671]: 2004  LLC: 2048
SAMPLER_SET[671]: 2004
Assign SAMPLER_SET[672]: 1864  LLC: 2048
Assign SAMPLER_SET[672]: 80  LLC: 2048
Assign SAMPLER_SET[672]: 413  LLC: 2048
SAMPLER_SET[672]: 413
Assign SAMPLER_SET[673]: 1705  LLC: 2048
Assign SAMPLER_SET[673]: 101  LLC: 2048
Assign SAMPLER_SET[673]: 1117  LLC: 2048
Assign SAMPLER_SET[673]: 791  LLC: 2048
SAMPLER_SET[673]: 791
Assign SAMPLER_SET[674]: 1148  LLC: 2048
SAMPLER_SET[674]: 1148
Assign SAMPLER_SET[675]: 1555  LLC: 2048
SAMPLER_SET[675]: 1555
Assign SAMPLER_SET[676]: 11  LLC: 2048
SAMPLER_SET[676]: 11
Assign SAMPLER_SET[677]: 1298  LLC: 2048
Assign SAMPLER_SET[677]: 1884  LLC: 2048
SAMPLER_SET[677]: 1884
Assign SAMPLER_SET[678]: 335  LLC: 2048
SAMPLER_SET[678]: 335
Assign SAMPLER_SET[679]: 1895  LLC: 2048
SAMPLER_SET[679]: 1895
Assign SAMPLER_SET[680]: 176  LLC: 2048
Assign SAMPLER_SET[680]: 1028  LLC: 2048
SAMPLER_SET[680]: 1028
Assign SAMPLER_SET[681]: 481  LLC: 2048
SAMPLER_SET[681]: 481
Assign SAMPLER_SET[682]: 1950  LLC: 2048
SAMPLER_SET[682]: 1950
Assign SAMPLER_SET[683]: 1560  LLC: 2048
SAMPLER_SET[683]: 1560
Assign SAMPLER_SET[684]: 1715  LLC: 2048
SAMPLER_SET[684]: 1715
Assign SAMPLER_SET[685]: 1024  LLC: 2048
SAMPLER_SET[685]: 1024
Assign SAMPLER_SET[686]: 314  LLC: 2048
SAMPLER_SET[686]: 314
Assign SAMPLER_SET[687]: 2046  LLC: 2048
SAMPLER_SET[687]: 2046
Assign SAMPLER_SET[688]: 1483  LLC: 2048
SAMPLER_SET[688]: 1483
Assign SAMPLER_SET[689]: 1220  LLC: 2048
SAMPLER_SET[689]: 1220
Assign SAMPLER_SET[690]: 540  LLC: 2048
Assign SAMPLER_SET[690]: 1015  LLC: 2048
SAMPLER_SET[690]: 1015
Assign SAMPLER_SET[691]: 555  LLC: 2048
SAMPLER_SET[691]: 555
Assign SAMPLER_SET[692]: 336  LLC: 2048
Assign SAMPLER_SET[692]: 824  LLC: 2048
SAMPLER_SET[692]: 824
Assign SAMPLER_SET[693]: 894  LLC: 2048
SAMPLER_SET[693]: 894
Assign SAMPLER_SET[694]: 334  LLC: 2048
SAMPLER_SET[694]: 334
Assign SAMPLER_SET[695]: 1211  LLC: 2048
SAMPLER_SET[695]: 1211
Assign SAMPLER_SET[696]: 1555  LLC: 2048
Assign SAMPLER_SET[696]: 453  LLC: 2048
Assign SAMPLER_SET[696]: 1312  LLC: 2048
SAMPLER_SET[696]: 1312
Assign SAMPLER_SET[697]: 195  LLC: 2048
Assign SAMPLER_SET[697]: 1534  LLC: 2048
SAMPLER_SET[697]: 1534
Assign SAMPLER_SET[698]: 573  LLC: 2048
SAMPLER_SET[698]: 573
Assign SAMPLER_SET[699]: 1444  LLC: 2048
SAMPLER_SET[699]: 1444
Assign SAMPLER_SET[700]: 1328  LLC: 2048
Assign SAMPLER_SET[700]: 271  LLC: 2048
Assign SAMPLER_SET[700]: 996  LLC: 2048
SAMPLER_SET[700]: 996
Assign SAMPLER_SET[701]: 71  LLC: 2048
Assign SAMPLER_SET[701]: 522  LLC: 2048
SAMPLER_SET[701]: 522
Assign SAMPLER_SET[702]: 1252  LLC: 2048
Assign SAMPLER_SET[702]: 1362  LLC: 2048
SAMPLER_SET[702]: 1362
Assign SAMPLER_SET[703]: 257  LLC: 2048
Assign SAMPLER_SET[703]: 122  LLC: 2048
SAMPLER_SET[703]: 122
Assign SAMPLER_SET[704]: 791  LLC: 2048
Assign SAMPLER_SET[704]: 1409  LLC: 2048
SAMPLER_SET[704]: 1409
Assign SAMPLER_SET[705]: 305  LLC: 2048
SAMPLER_SET[705]: 305
Assign SAMPLER_SET[706]: 1664  LLC: 2048
SAMPLER_SET[706]: 1664
Assign SAMPLER_SET[707]: 384  LLC: 2048
SAMPLER_SET[707]: 384
Assign SAMPLER_SET[708]: 1375  LLC: 2048
SAMPLER_SET[708]: 1375
Assign SAMPLER_SET[709]: 53  LLC: 2048
Assign SAMPLER_SET[709]: 346  LLC: 2048
SAMPLER_SET[709]: 346
Assign SAMPLER_SET[710]: 557  LLC: 2048
SAMPLER_SET[710]: 557
Assign SAMPLER_SET[711]: 1557  LLC: 2048
Assign SAMPLER_SET[711]: 460  LLC: 2048
SAMPLER_SET[711]: 460
Assign SAMPLER_SET[712]: 688  LLC: 2048
Assign SAMPLER_SET[712]: 1826  LLC: 2048
SAMPLER_SET[712]: 1826
Assign SAMPLER_SET[713]: 21  LLC: 2048
Assign SAMPLER_SET[713]: 1581  LLC: 2048
SAMPLER_SET[713]: 1581
Assign SAMPLER_SET[714]: 1152  LLC: 2048
Assign SAMPLER_SET[714]: 1489  LLC: 2048
SAMPLER_SET[714]: 1489
Assign SAMPLER_SET[715]: 1766  LLC: 2048
SAMPLER_SET[715]: 1766
Assign SAMPLER_SET[716]: 2020  LLC: 2048
Assign SAMPLER_SET[716]: 1996  LLC: 2048
SAMPLER_SET[716]: 1996
Assign SAMPLER_SET[717]: 1624  LLC: 2048
Assign SAMPLER_SET[717]: 1455  LLC: 2048
SAMPLER_SET[717]: 1455
Assign SAMPLER_SET[718]: 879  LLC: 2048
Assign SAMPLER_SET[718]: 517  LLC: 2048
Assign SAMPLER_SET[718]: 637  LLC: 2048
Assign SAMPLER_SET[718]: 133  LLC: 2048
SAMPLER_SET[718]: 133
Assign SAMPLER_SET[719]: 1180  LLC: 2048
Assign SAMPLER_SET[719]: 1333  LLC: 2048
Assign SAMPLER_SET[719]: 106  LLC: 2048
Assign SAMPLER_SET[719]: 1652  LLC: 2048
Assign SAMPLER_SET[719]: 1440  LLC: 2048
SAMPLER_SET[719]: 1440
Assign SAMPLER_SET[720]: 1776  LLC: 2048
SAMPLER_SET[720]: 1776
Assign SAMPLER_SET[721]: 1320  LLC: 2048
SAMPLER_SET[721]: 1320
Assign SAMPLER_SET[722]: 79  LLC: 2048
Assign SAMPLER_SET[722]: 1015  LLC: 2048
Assign SAMPLER_SET[722]: 505  LLC: 2048
SAMPLER_SET[722]: 505
Assign SAMPLER_SET[723]: 732  LLC: 2048
Assign SAMPLER_SET[723]: 56  LLC: 2048
SAMPLER_SET[723]: 56
Assign SAMPLER_SET[724]: 1792  LLC: 2048
Assign SAMPLER_SET[724]: 1715  LLC: 2048
Assign SAMPLER_SET[724]: 1732  LLC: 2048
SAMPLER_SET[724]: 1732
Assign SAMPLER_SET[725]: 1518  LLC: 2048
SAMPLER_SET[725]: 1518
Assign SAMPLER_SET[726]: 1108  LLC: 2048
SAMPLER_SET[726]: 1108
Assign SAMPLER_SET[727]: 1614  LLC: 2048
SAMPLER_SET[727]: 1614
Assign SAMPLER_SET[728]: 753  LLC: 2048
SAMPLER_SET[728]: 753
Assign SAMPLER_SET[729]: 985  LLC: 2048
SAMPLER_SET[729]: 985
Assign SAMPLER_SET[730]: 1514  LLC: 2048
SAMPLER_SET[730]: 1514
Assign SAMPLER_SET[731]: 1197  LLC: 2048
SAMPLER_SET[731]: 1197
Assign SAMPLER_SET[732]: 1986  LLC: 2048
SAMPLER_SET[732]: 1986
Assign SAMPLER_SET[733]: 215  LLC: 2048
SAMPLER_SET[733]: 215
Assign SAMPLER_SET[734]: 1515  LLC: 2048
Assign SAMPLER_SET[734]: 1305  LLC: 2048
SAMPLER_SET[734]: 1305
Assign SAMPLER_SET[735]: 292  LLC: 2048
SAMPLER_SET[735]: 292
Assign SAMPLER_SET[736]: 708  LLC: 2048
SAMPLER_SET[736]: 708
Assign SAMPLER_SET[737]: 1110  LLC: 2048
SAMPLER_SET[737]: 1110
Assign SAMPLER_SET[738]: 1448  LLC: 2048
Assign SAMPLER_SET[738]: 907  LLC: 2048
SAMPLER_SET[738]: 907
Assign SAMPLER_SET[739]: 1483  LLC: 2048
Assign SAMPLER_SET[739]: 596  LLC: 2048
SAMPLER_SET[739]: 596
Assign SAMPLER_SET[740]: 1387  LLC: 2048
SAMPLER_SET[740]: 1387
Assign SAMPLER_SET[741]: 1199  LLC: 2048
SAMPLER_SET[741]: 1199
Assign SAMPLER_SET[742]: 1136  LLC: 2048
Assign SAMPLER_SET[742]: 1880  LLC: 2048
Assign SAMPLER_SET[742]: 346  LLC: 2048
Assign SAMPLER_SET[742]: 1031  LLC: 2048
Assign SAMPLER_SET[742]: 1113  LLC: 2048
SAMPLER_SET[742]: 1113
Assign SAMPLER_SET[743]: 1022  LLC: 2048
SAMPLER_SET[743]: 1022
Assign SAMPLER_SET[744]: 1024  LLC: 2048
Assign SAMPLER_SET[744]: 1798  LLC: 2048
Assign SAMPLER_SET[744]: 991  LLC: 2048
SAMPLER_SET[744]: 991
Assign SAMPLER_SET[745]: 1697  LLC: 2048
Assign SAMPLER_SET[745]: 998  LLC: 2048
Assign SAMPLER_SET[745]: 1304  LLC: 2048
SAMPLER_SET[745]: 1304
Assign SAMPLER_SET[746]: 1113  LLC: 2048
Assign SAMPLER_SET[746]: 1466  LLC: 2048
Assign SAMPLER_SET[746]: 1217  LLC: 2048
SAMPLER_SET[746]: 1217
Assign SAMPLER_SET[747]: 1883  LLC: 2048
SAMPLER_SET[747]: 1883
Assign SAMPLER_SET[748]: 1315  LLC: 2048
Assign SAMPLER_SET[748]: 1020  LLC: 2048
SAMPLER_SET[748]: 1020
Assign SAMPLER_SET[749]: 1883  LLC: 2048
Assign SAMPLER_SET[749]: 30  LLC: 2048
SAMPLER_SET[749]: 30
Assign SAMPLER_SET[750]: 880  LLC: 2048
SAMPLER_SET[750]: 880
Assign SAMPLER_SET[751]: 560  LLC: 2048
SAMPLER_SET[751]: 560
Assign SAMPLER_SET[752]: 1090  LLC: 2048
SAMPLER_SET[752]: 1090
Assign SAMPLER_SET[753]: 1562  LLC: 2048
SAMPLER_SET[753]: 1562
Assign SAMPLER_SET[754]: 724  LLC: 2048
SAMPLER_SET[754]: 724
Assign SAMPLER_SET[755]: 720  LLC: 2048
SAMPLER_SET[755]: 720
Assign SAMPLER_SET[756]: 1330  LLC: 2048
SAMPLER_SET[756]: 1330
Assign SAMPLER_SET[757]: 1906  LLC: 2048
SAMPLER_SET[757]: 1906
Assign SAMPLER_SET[758]: 656  LLC: 2048
Assign SAMPLER_SET[758]: 870  LLC: 2048
SAMPLER_SET[758]: 870
Assign SAMPLER_SET[759]: 322  LLC: 2048
Assign SAMPLER_SET[759]: 108  LLC: 2048
SAMPLER_SET[759]: 108
Assign SAMPLER_SET[760]: 925  LLC: 2048
SAMPLER_SET[760]: 925
Assign SAMPLER_SET[761]: 1954  LLC: 2048
Assign SAMPLER_SET[761]: 2001  LLC: 2048
Assign SAMPLER_SET[761]: 493  LLC: 2048
SAMPLER_SET[761]: 493
Assign SAMPLER_SET[762]: 887  LLC: 2048
Assign SAMPLER_SET[762]: 574  LLC: 2048
SAMPLER_SET[762]: 574
Assign SAMPLER_SET[763]: 1584  LLC: 2048
SAMPLER_SET[763]: 1584
Assign SAMPLER_SET[764]: 950  LLC: 2048
SAMPLER_SET[764]: 950
Assign SAMPLER_SET[765]: 1966  LLC: 2048
SAMPLER_SET[765]: 1966
Assign SAMPLER_SET[766]: 1938  LLC: 2048
Assign SAMPLER_SET[766]: 1037  LLC: 2048
Assign SAMPLER_SET[766]: 1633  LLC: 2048
SAMPLER_SET[766]: 1633
Assign SAMPLER_SET[767]: 1582  LLC: 2048
Assign SAMPLER_SET[767]: 1526  LLC: 2048
Assign SAMPLER_SET[767]: 674  LLC: 2048
SAMPLER_SET[767]: 674
Assign SAMPLER_SET[768]: 282  LLC: 2048
SAMPLER_SET[768]: 282
Assign SAMPLER_SET[769]: 1609  LLC: 2048
SAMPLER_SET[769]: 1609
Assign SAMPLER_SET[770]: 2011  LLC: 2048
Assign SAMPLER_SET[770]: 673  LLC: 2048
SAMPLER_SET[770]: 673
Assign SAMPLER_SET[771]: 1821  LLC: 2048
SAMPLER_SET[771]: 1821
Assign SAMPLER_SET[772]: 1673  LLC: 2048
SAMPLER_SET[772]: 1673
Assign SAMPLER_SET[773]: 936  LLC: 2048
SAMPLER_SET[773]: 936
Assign SAMPLER_SET[774]: 1246  LLC: 2048
Assign SAMPLER_SET[774]: 242  LLC: 2048
SAMPLER_SET[774]: 242
Assign SAMPLER_SET[775]: 824  LLC: 2048
Assign SAMPLER_SET[775]: 1366  LLC: 2048
Assign SAMPLER_SET[775]: 442  LLC: 2048
SAMPLER_SET[775]: 442
Assign SAMPLER_SET[776]: 1387  LLC: 2048
Assign SAMPLER_SET[776]: 427  LLC: 2048
SAMPLER_SET[776]: 427
Assign SAMPLER_SET[777]: 1482  LLC: 2048
SAMPLER_SET[777]: 1482
Assign SAMPLER_SET[778]: 851  LLC: 2048
Assign SAMPLER_SET[778]: 1626  LLC: 2048
SAMPLER_SET[778]: 1626
Assign SAMPLER_SET[779]: 1107  LLC: 2048
SAMPLER_SET[779]: 1107
Assign SAMPLER_SET[780]: 1014  LLC: 2048
SAMPLER_SET[780]: 1014
Assign SAMPLER_SET[781]: 1645  LLC: 2048
Assign SAMPLER_SET[781]: 1299  LLC: 2048
SAMPLER_SET[781]: 1299
Assign SAMPLER_SET[782]: 897  LLC: 2048
SAMPLER_SET[782]: 897
Assign SAMPLER_SET[783]: 942  LLC: 2048
SAMPLER_SET[783]: 942
Assign SAMPLER_SET[784]: 1567  LLC: 2048
SAMPLER_SET[784]: 1567
Assign SAMPLER_SET[785]: 677  LLC: 2048
Assign SAMPLER_SET[785]: 1788  LLC: 2048
SAMPLER_SET[785]: 1788
Assign SAMPLER_SET[786]: 1610  LLC: 2048
Assign SAMPLER_SET[786]: 1597  LLC: 2048
Assign SAMPLER_SET[786]: 2007  LLC: 2048
SAMPLER_SET[786]: 2007
Assign SAMPLER_SET[787]: 1093  LLC: 2048
SAMPLER_SET[787]: 1093
Assign SAMPLER_SET[788]: 257  LLC: 2048
Assign SAMPLER_SET[788]: 137  LLC: 2048
SAMPLER_SET[788]: 137
Assign SAMPLER_SET[789]: 228  LLC: 2048
Assign SAMPLER_SET[789]: 1444  LLC: 2048
Assign SAMPLER_SET[789]: 1280  LLC: 2048
SAMPLER_SET[789]: 1280
Assign SAMPLER_SET[790]: 152  LLC: 2048
SAMPLER_SET[790]: 152
Assign SAMPLER_SET[791]: 246  LLC: 2048
Assign SAMPLER_SET[791]: 1531  LLC: 2048
Assign SAMPLER_SET[791]: 1357  LLC: 2048
SAMPLER_SET[791]: 1357
Assign SAMPLER_SET[792]: 646  LLC: 2048
Assign SAMPLER_SET[792]: 356  LLC: 2048
SAMPLER_SET[792]: 356
Assign SAMPLER_SET[793]: 1350  LLC: 2048
SAMPLER_SET[793]: 1350
Assign SAMPLER_SET[794]: 1631  LLC: 2048
SAMPLER_SET[794]: 1631
Assign SAMPLER_SET[795]: 89  LLC: 2048
SAMPLER_SET[795]: 89
Assign SAMPLER_SET[796]: 172  LLC: 2048
Assign SAMPLER_SET[796]: 501  LLC: 2048
SAMPLER_SET[796]: 501
Assign SAMPLER_SET[797]: 889  LLC: 2048
SAMPLER_SET[797]: 889
Assign SAMPLER_SET[798]: 566  LLC: 2048
Assign SAMPLER_SET[798]: 1327  LLC: 2048
Assign SAMPLER_SET[798]: 746  LLC: 2048
SAMPLER_SET[798]: 746
Assign SAMPLER_SET[799]: 1482  LLC: 2048
Assign SAMPLER_SET[799]: 1350  LLC: 2048
Assign SAMPLER_SET[799]: 1967  LLC: 2048
SAMPLER_SET[799]: 1967
Assign SAMPLER_SET[800]: 1616  LLC: 2048
SAMPLER_SET[800]: 1616
Assign SAMPLER_SET[801]: 326  LLC: 2048
SAMPLER_SET[801]: 326
Assign SAMPLER_SET[802]: 1382  LLC: 2048
Assign SAMPLER_SET[802]: 393  LLC: 2048
Assign SAMPLER_SET[802]: 289  LLC: 2048
SAMPLER_SET[802]: 289
Assign SAMPLER_SET[803]: 834  LLC: 2048
Assign SAMPLER_SET[803]: 1425  LLC: 2048
SAMPLER_SET[803]: 1425
Assign SAMPLER_SET[804]: 689  LLC: 2048
SAMPLER_SET[804]: 689
Assign SAMPLER_SET[805]: 886  LLC: 2048
Assign SAMPLER_SET[805]: 1746  LLC: 2048
SAMPLER_SET[805]: 1746
Assign SAMPLER_SET[806]: 781  LLC: 2048
Assign SAMPLER_SET[806]: 882  LLC: 2048
Assign SAMPLER_SET[806]: 1421  LLC: 2048
SAMPLER_SET[806]: 1421
Assign SAMPLER_SET[807]: 739  LLC: 2048
Assign SAMPLER_SET[807]: 1880  LLC: 2048
Assign SAMPLER_SET[807]: 1507  LLC: 2048
SAMPLER_SET[807]: 1507
Assign SAMPLER_SET[808]: 412  LLC: 2048
SAMPLER_SET[808]: 412
Assign SAMPLER_SET[809]: 1559  LLC: 2048
SAMPLER_SET[809]: 1559
Assign SAMPLER_SET[810]: 1233  LLC: 2048
SAMPLER_SET[810]: 1233
Assign SAMPLER_SET[811]: 808  LLC: 2048
SAMPLER_SET[811]: 808
Assign SAMPLER_SET[812]: 1624  LLC: 2048
Assign SAMPLER_SET[812]: 1123  LLC: 2048
SAMPLER_SET[812]: 1123
Assign SAMPLER_SET[813]: 551  LLC: 2048
SAMPLER_SET[813]: 551
Assign SAMPLER_SET[814]: 110  LLC: 2048
SAMPLER_SET[814]: 110
Assign SAMPLER_SET[815]: 1604  LLC: 2048
SAMPLER_SET[815]: 1604
Assign SAMPLER_SET[816]: 619  LLC: 2048
SAMPLER_SET[816]: 619
Assign SAMPLER_SET[817]: 130  LLC: 2048
SAMPLER_SET[817]: 130
Assign SAMPLER_SET[818]: 1956  LLC: 2048
SAMPLER_SET[818]: 1956
Assign SAMPLER_SET[819]: 1978  LLC: 2048
Assign SAMPLER_SET[819]: 664  LLC: 2048
SAMPLER_SET[819]: 664
Assign SAMPLER_SET[820]: 115  LLC: 2048
SAMPLER_SET[820]: 115
Assign SAMPLER_SET[821]: 2042  LLC: 2048
SAMPLER_SET[821]: 2042
Assign SAMPLER_SET[822]: 443  LLC: 2048
Assign SAMPLER_SET[822]: 2047  LLC: 2048
SAMPLER_SET[822]: 2047
Assign SAMPLER_SET[823]: 412  LLC: 2048
Assign SAMPLER_SET[823]: 538  LLC: 2048
SAMPLER_SET[823]: 538
Assign SAMPLER_SET[824]: 374  LLC: 2048
SAMPLER_SET[824]: 374
Assign SAMPLER_SET[825]: 754  LLC: 2048
SAMPLER_SET[825]: 754
Assign SAMPLER_SET[826]: 287  LLC: 2048
SAMPLER_SET[826]: 287
Assign SAMPLER_SET[827]: 1065  LLC: 2048
SAMPLER_SET[827]: 1065
Assign SAMPLER_SET[828]: 1177  LLC: 2048
SAMPLER_SET[828]: 1177
Assign SAMPLER_SET[829]: 866  LLC: 2048
SAMPLER_SET[829]: 866
Assign SAMPLER_SET[830]: 712  LLC: 2048
SAMPLER_SET[830]: 712
Assign SAMPLER_SET[831]: 380  LLC: 2048
SAMPLER_SET[831]: 380
Assign SAMPLER_SET[832]: 1115  LLC: 2048
Assign SAMPLER_SET[832]: 1275  LLC: 2048
Assign SAMPLER_SET[832]: 249  LLC: 2048
SAMPLER_SET[832]: 249
Assign SAMPLER_SET[833]: 538  LLC: 2048
Assign SAMPLER_SET[833]: 1350  LLC: 2048
Assign SAMPLER_SET[833]: 253  LLC: 2048
SAMPLER_SET[833]: 253
Assign SAMPLER_SET[834]: 1881  LLC: 2048
Assign SAMPLER_SET[834]: 1526  LLC: 2048
Assign SAMPLER_SET[834]: 1989  LLC: 2048
SAMPLER_SET[834]: 1989
Assign SAMPLER_SET[835]: 475  LLC: 2048
SAMPLER_SET[835]: 475
Assign SAMPLER_SET[836]: 1084  LLC: 2048
SAMPLER_SET[836]: 1084
Assign SAMPLER_SET[837]: 2025  LLC: 2048
SAMPLER_SET[837]: 2025
Assign SAMPLER_SET[838]: 1393  LLC: 2048
SAMPLER_SET[838]: 1393
Assign SAMPLER_SET[839]: 1174  LLC: 2048
SAMPLER_SET[839]: 1174
Assign SAMPLER_SET[840]: 1232  LLC: 2048
SAMPLER_SET[840]: 1232
Assign SAMPLER_SET[841]: 1137  LLC: 2048
SAMPLER_SET[841]: 1137
Assign SAMPLER_SET[842]: 1820  LLC: 2048
Assign SAMPLER_SET[842]: 984  LLC: 2048
Assign SAMPLER_SET[842]: 13  LLC: 2048
Assign SAMPLER_SET[842]: 44  LLC: 2048
SAMPLER_SET[842]: 44
Assign SAMPLER_SET[843]: 1945  LLC: 2048
Assign SAMPLER_SET[843]: 208  LLC: 2048
Assign SAMPLER_SET[843]: 1114  LLC: 2048
SAMPLER_SET[843]: 1114
Assign SAMPLER_SET[844]: 530  LLC: 2048
Assign SAMPLER_SET[844]: 1873  LLC: 2048
SAMPLER_SET[844]: 1873
Assign SAMPLER_SET[845]: 1488  LLC: 2048
SAMPLER_SET[845]: 1488
Assign SAMPLER_SET[846]: 1024  LLC: 2048
Assign SAMPLER_SET[846]: 1397  LLC: 2048
Assign SAMPLER_SET[846]: 1159  LLC: 2048
Assign SAMPLER_SET[846]: 1704  LLC: 2048
Assign SAMPLER_SET[846]: 1103  LLC: 2048
SAMPLER_SET[846]: 1103
Assign SAMPLER_SET[847]: 1978  LLC: 2048
Assign SAMPLER_SET[847]: 1126  LLC: 2048
Assign SAMPLER_SET[847]: 704  LLC: 2048
SAMPLER_SET[847]: 704
Assign SAMPLER_SET[848]: 914  LLC: 2048
Assign SAMPLER_SET[848]: 1493  LLC: 2048
SAMPLER_SET[848]: 1493
Assign SAMPLER_SET[849]: 208  LLC: 2048
Assign SAMPLER_SET[849]: 1271  LLC: 2048
Assign SAMPLER_SET[849]: 436  LLC: 2048
SAMPLER_SET[849]: 436
Assign SAMPLER_SET[850]: 1414  LLC: 2048
Assign SAMPLER_SET[850]: 1765  LLC: 2048
Assign SAMPLER_SET[850]: 1343  LLC: 2048
SAMPLER_SET[850]: 1343
Assign SAMPLER_SET[851]: 1967  LLC: 2048
Assign SAMPLER_SET[851]: 1621  LLC: 2048
SAMPLER_SET[851]: 1621
Assign SAMPLER_SET[852]: 597  LLC: 2048
SAMPLER_SET[852]: 597
Assign SAMPLER_SET[853]: 2037  LLC: 2048
SAMPLER_SET[853]: 2037
Assign SAMPLER_SET[854]: 440  LLC: 2048
SAMPLER_SET[854]: 440
Assign SAMPLER_SET[855]: 1614  LLC: 2048
Assign SAMPLER_SET[855]: 358  LLC: 2048
SAMPLER_SET[855]: 358
Assign SAMPLER_SET[856]: 1793  LLC: 2048
SAMPLER_SET[856]: 1793
Assign SAMPLER_SET[857]: 44  LLC: 2048
Assign SAMPLER_SET[857]: 1661  LLC: 2048
Assign SAMPLER_SET[857]: 1476  LLC: 2048
Assign SAMPLER_SET[857]: 178  LLC: 2048
Assign SAMPLER_SET[857]: 824  LLC: 2048
Assign SAMPLER_SET[857]: 808  LLC: 2048
Assign SAMPLER_SET[857]: 1548  LLC: 2048
SAMPLER_SET[857]: 1548
Assign SAMPLER_SET[858]: 86  LLC: 2048
SAMPLER_SET[858]: 86
Assign SAMPLER_SET[859]: 1355  LLC: 2048
SAMPLER_SET[859]: 1355
Assign SAMPLER_SET[860]: 975  LLC: 2048
Assign SAMPLER_SET[860]: 1047  LLC: 2048
SAMPLER_SET[860]: 1047
Assign SAMPLER_SET[861]: 1180  LLC: 2048
Assign SAMPLER_SET[861]: 61  LLC: 2048
SAMPLER_SET[861]: 61
Assign SAMPLER_SET[862]: 1764  LLC: 2048
Assign SAMPLER_SET[862]: 1031  LLC: 2048
Assign SAMPLER_SET[862]: 1963  LLC: 2048
SAMPLER_SET[862]: 1963
Assign SAMPLER_SET[863]: 316  LLC: 2048
SAMPLER_SET[863]: 316
Assign SAMPLER_SET[864]: 1354  LLC: 2048
SAMPLER_SET[864]: 1354
Assign SAMPLER_SET[865]: 18  LLC: 2048
SAMPLER_SET[865]: 18
Assign SAMPLER_SET[866]: 1278  LLC: 2048
SAMPLER_SET[866]: 1278
Assign SAMPLER_SET[867]: 1915  LLC: 2048
SAMPLER_SET[867]: 1915
Assign SAMPLER_SET[868]: 400  LLC: 2048
SAMPLER_SET[868]: 400
Assign SAMPLER_SET[869]: 1297  LLC: 2048
Assign SAMPLER_SET[869]: 262  LLC: 2048
SAMPLER_SET[869]: 262
Assign SAMPLER_SET[870]: 409  LLC: 2048
SAMPLER_SET[870]: 409
Assign SAMPLER_SET[871]: 1770  LLC: 2048
Assign SAMPLER_SET[871]: 967  LLC: 2048
Assign SAMPLER_SET[871]: 1661  LLC: 2048
Assign SAMPLER_SET[871]: 1489  LLC: 2048
Assign SAMPLER_SET[871]: 1011  LLC: 2048
Assign SAMPLER_SET[871]: 754  LLC: 2048
Assign SAMPLER_SET[871]: 1420  LLC: 2048
Assign SAMPLER_SET[871]: 231  LLC: 2048
Assign SAMPLER_SET[871]: 1317  LLC: 2048
Assign SAMPLER_SET[871]: 1556  LLC: 2048
Assign SAMPLER_SET[871]: 156  LLC: 2048
Assign SAMPLER_SET[871]: 1998  LLC: 2048
SAMPLER_SET[871]: 1998
Assign SAMPLER_SET[872]: 788  LLC: 2048
Assign SAMPLER_SET[872]: 1278  LLC: 2048
Assign SAMPLER_SET[872]: 764  LLC: 2048
Assign SAMPLER_SET[872]: 25  LLC: 2048
SAMPLER_SET[872]: 25
Assign SAMPLER_SET[873]: 109  LLC: 2048
SAMPLER_SET[873]: 109
Assign SAMPLER_SET[874]: 33  LLC: 2048
SAMPLER_SET[874]: 33
Assign SAMPLER_SET[875]: 1335  LLC: 2048
SAMPLER_SET[875]: 1335
Assign SAMPLER_SET[876]: 808  LLC: 2048
Assign SAMPLER_SET[876]: 946  LLC: 2048
Assign SAMPLER_SET[876]: 1428  LLC: 2048
SAMPLER_SET[876]: 1428
Assign SAMPLER_SET[877]: 819  LLC: 2048
Assign SAMPLER_SET[877]: 15  LLC: 2048
Assign SAMPLER_SET[877]: 179  LLC: 2048
SAMPLER_SET[877]: 179
Assign SAMPLER_SET[878]: 740  LLC: 2048
SAMPLER_SET[878]: 740
Assign SAMPLER_SET[879]: 10  LLC: 2048
SAMPLER_SET[879]: 10
Assign SAMPLER_SET[880]: 69  LLC: 2048
SAMPLER_SET[880]: 69
Assign SAMPLER_SET[881]: 1483  LLC: 2048
Assign SAMPLER_SET[881]: 1951  LLC: 2048
SAMPLER_SET[881]: 1951
Assign SAMPLER_SET[882]: 936  LLC: 2048
Assign SAMPLER_SET[882]: 785  LLC: 2048
Assign SAMPLER_SET[882]: 224  LLC: 2048
SAMPLER_SET[882]: 224
Assign SAMPLER_SET[883]: 1183  LLC: 2048
Assign SAMPLER_SET[883]: 1577  LLC: 2048
Assign SAMPLER_SET[883]: 948  LLC: 2048
Assign SAMPLER_SET[883]: 24  LLC: 2048
Assign SAMPLER_SET[883]: 1047  LLC: 2048
Assign SAMPLER_SET[883]: 1263  LLC: 2048
SAMPLER_SET[883]: 1263
Assign SAMPLER_SET[884]: 1623  LLC: 2048
Assign SAMPLER_SET[884]: 604  LLC: 2048
SAMPLER_SET[884]: 604
Assign SAMPLER_SET[885]: 1631  LLC: 2048
Assign SAMPLER_SET[885]: 1414  LLC: 2048
Assign SAMPLER_SET[885]: 1971  LLC: 2048
SAMPLER_SET[885]: 1971
Assign SAMPLER_SET[886]: 909  LLC: 2048
SAMPLER_SET[886]: 909
Assign SAMPLER_SET[887]: 1919  LLC: 2048
SAMPLER_SET[887]: 1919
Assign SAMPLER_SET[888]: 569  LLC: 2048
Assign SAMPLER_SET[888]: 898  LLC: 2048
SAMPLER_SET[888]: 898
Assign SAMPLER_SET[889]: 137  LLC: 2048
Assign SAMPLER_SET[889]: 381  LLC: 2048
SAMPLER_SET[889]: 381
Assign SAMPLER_SET[890]: 1137  LLC: 2048
Assign SAMPLER_SET[890]: 1449  LLC: 2048
SAMPLER_SET[890]: 1449
Assign SAMPLER_SET[891]: 1756  LLC: 2048
SAMPLER_SET[891]: 1756
Assign SAMPLER_SET[892]: 1895  LLC: 2048
Assign SAMPLER_SET[892]: 208  LLC: 2048
Assign SAMPLER_SET[892]: 546  LLC: 2048
SAMPLER_SET[892]: 546
Assign SAMPLER_SET[893]: 1094  LLC: 2048
Assign SAMPLER_SET[893]: 1311  LLC: 2048
Assign SAMPLER_SET[893]: 273  LLC: 2048
Assign SAMPLER_SET[893]: 1963  LLC: 2048
Assign SAMPLER_SET[893]: 497  LLC: 2048
SAMPLER_SET[893]: 497
Assign SAMPLER_SET[894]: 2025  LLC: 2048
Assign SAMPLER_SET[894]: 1950  LLC: 2048
Assign SAMPLER_SET[894]: 304  LLC: 2048
SAMPLER_SET[894]: 304
Assign SAMPLER_SET[895]: 1903  LLC: 2048
Assign SAMPLER_SET[895]: 950  LLC: 2048
Assign SAMPLER_SET[895]: 238  LLC: 2048
Assign SAMPLER_SET[895]: 505  LLC: 2048
Assign SAMPLER_SET[895]: 373  LLC: 2048
SAMPLER_SET[895]: 373
Assign SAMPLER_SET[896]: 302  LLC: 2048
SAMPLER_SET[896]: 302
Assign SAMPLER_SET[897]: 1701  LLC: 2048
SAMPLER_SET[897]: 1701
Assign SAMPLER_SET[898]: 148  LLC: 2048
SAMPLER_SET[898]: 148
Assign SAMPLER_SET[899]: 89  LLC: 2048
Assign SAMPLER_SET[899]: 127  LLC: 2048
SAMPLER_SET[899]: 127
Assign SAMPLER_SET[900]: 105  LLC: 2048
SAMPLER_SET[900]: 105
Assign SAMPLER_SET[901]: 1152  LLC: 2048
Assign SAMPLER_SET[901]: 589  LLC: 2048
SAMPLER_SET[901]: 589
Assign SAMPLER_SET[902]: 1256  LLC: 2048
SAMPLER_SET[902]: 1256
Assign SAMPLER_SET[903]: 1669  LLC: 2048
SAMPLER_SET[903]: 1669
Assign SAMPLER_SET[904]: 670  LLC: 2048
SAMPLER_SET[904]: 670
Assign SAMPLER_SET[905]: 1369  LLC: 2048
Assign SAMPLER_SET[905]: 1284  LLC: 2048
SAMPLER_SET[905]: 1284
Assign SAMPLER_SET[906]: 576  LLC: 2048
SAMPLER_SET[906]: 576
Assign SAMPLER_SET[907]: 1112  LLC: 2048
SAMPLER_SET[907]: 1112
Assign SAMPLER_SET[908]: 1306  LLC: 2048
Assign SAMPLER_SET[908]: 983  LLC: 2048
SAMPLER_SET[908]: 983
Assign SAMPLER_SET[909]: 2043  LLC: 2048
SAMPLER_SET[909]: 2043
Assign SAMPLER_SET[910]: 1422  LLC: 2048
Assign SAMPLER_SET[910]: 60  LLC: 2048
SAMPLER_SET[910]: 60
Assign SAMPLER_SET[911]: 1690  LLC: 2048
SAMPLER_SET[911]: 1690
Assign SAMPLER_SET[912]: 1805  LLC: 2048
Assign SAMPLER_SET[912]: 1349  LLC: 2048
SAMPLER_SET[912]: 1349
Assign SAMPLER_SET[913]: 441  LLC: 2048
SAMPLER_SET[913]: 441
Assign SAMPLER_SET[914]: 838  LLC: 2048
Assign SAMPLER_SET[914]: 863  LLC: 2048
Assign SAMPLER_SET[914]: 1294  LLC: 2048
SAMPLER_SET[914]: 1294
Assign SAMPLER_SET[915]: 462  LLC: 2048
Assign SAMPLER_SET[915]: 994  LLC: 2048
SAMPLER_SET[915]: 994
Assign SAMPLER_SET[916]: 1222  LLC: 2048
SAMPLER_SET[916]: 1222
Assign SAMPLER_SET[917]: 824  LLC: 2048
Assign SAMPLER_SET[917]: 706  LLC: 2048
SAMPLER_SET[917]: 706
Assign SAMPLER_SET[918]: 653  LLC: 2048
SAMPLER_SET[918]: 653
Assign SAMPLER_SET[919]: 36  LLC: 2048
Assign SAMPLER_SET[919]: 949  LLC: 2048
SAMPLER_SET[919]: 949
Assign SAMPLER_SET[920]: 1366  LLC: 2048
Assign SAMPLER_SET[920]: 587  LLC: 2048
SAMPLER_SET[920]: 587
Assign SAMPLER_SET[921]: 1597  LLC: 2048
Assign SAMPLER_SET[921]: 973  LLC: 2048
Assign SAMPLER_SET[921]: 267  LLC: 2048
SAMPLER_SET[921]: 267
Assign SAMPLER_SET[922]: 143  LLC: 2048
Assign SAMPLER_SET[922]: 1113  LLC: 2048
Assign SAMPLER_SET[922]: 1156  LLC: 2048
SAMPLER_SET[922]: 1156
Assign SAMPLER_SET[923]: 1046  LLC: 2048
Assign SAMPLER_SET[923]: 908  LLC: 2048
SAMPLER_SET[923]: 908
Assign SAMPLER_SET[924]: 671  LLC: 2048
Assign SAMPLER_SET[924]: 1996  LLC: 2048
Assign SAMPLER_SET[924]: 1828  LLC: 2048
SAMPLER_SET[924]: 1828
Assign SAMPLER_SET[925]: 316  LLC: 2048
Assign SAMPLER_SET[925]: 1068  LLC: 2048
SAMPLER_SET[925]: 1068
Assign SAMPLER_SET[926]: 1131  LLC: 2048
Assign SAMPLER_SET[926]: 206  LLC: 2048
Assign SAMPLER_SET[926]: 813  LLC: 2048
Assign SAMPLER_SET[926]: 1270  LLC: 2048
SAMPLER_SET[926]: 1270
Assign SAMPLER_SET[927]: 1194  LLC: 2048
SAMPLER_SET[927]: 1194
Assign SAMPLER_SET[928]: 1242  LLC: 2048
SAMPLER_SET[928]: 1242
Assign SAMPLER_SET[929]: 782  LLC: 2048
SAMPLER_SET[929]: 782
Assign SAMPLER_SET[930]: 356  LLC: 2048
Assign SAMPLER_SET[930]: 963  LLC: 2048
SAMPLER_SET[930]: 963
Assign SAMPLER_SET[931]: 823  LLC: 2048
Assign SAMPLER_SET[931]: 1021  LLC: 2048
SAMPLER_SET[931]: 1021
Assign SAMPLER_SET[932]: 937  LLC: 2048
SAMPLER_SET[932]: 937
Assign SAMPLER_SET[933]: 1544  LLC: 2048
SAMPLER_SET[933]: 1544
Assign SAMPLER_SET[934]: 695  LLC: 2048
Assign SAMPLER_SET[934]: 1166  LLC: 2048
Assign SAMPLER_SET[934]: 740  LLC: 2048
Assign SAMPLER_SET[934]: 2003  LLC: 2048
SAMPLER_SET[934]: 2003
Assign SAMPLER_SET[935]: 906  LLC: 2048
SAMPLER_SET[935]: 906
Assign SAMPLER_SET[936]: 1435  LLC: 2048
SAMPLER_SET[936]: 1435
Assign SAMPLER_SET[937]: 2041  LLC: 2048
Assign SAMPLER_SET[937]: 1841  LLC: 2048
SAMPLER_SET[937]: 1841
Assign SAMPLER_SET[938]: 1406  LLC: 2048
Assign SAMPLER_SET[938]: 462  LLC: 2048
Assign SAMPLER_SET[938]: 1069  LLC: 2048
SAMPLER_SET[938]: 1069
Assign SAMPLER_SET[939]: 1101  LLC: 2048
SAMPLER_SET[939]: 1101
Assign SAMPLER_SET[940]: 1528  LLC: 2048
SAMPLER_SET[940]: 1528
Assign SAMPLER_SET[941]: 495  LLC: 2048
Assign SAMPLER_SET[941]: 1411  LLC: 2048
SAMPLER_SET[941]: 1411
Assign SAMPLER_SET[942]: 1182  LLC: 2048
SAMPLER_SET[942]: 1182
Assign SAMPLER_SET[943]: 433  LLC: 2048
Assign SAMPLER_SET[943]: 494  LLC: 2048
SAMPLER_SET[943]: 494
Assign SAMPLER_SET[944]: 1242  LLC: 2048
Assign SAMPLER_SET[944]: 1232  LLC: 2048
Assign SAMPLER_SET[944]: 1586  LLC: 2048
Assign SAMPLER_SET[944]: 688  LLC: 2048
Assign SAMPLER_SET[944]: 451  LLC: 2048
Assign SAMPLER_SET[944]: 1395  LLC: 2048
SAMPLER_SET[944]: 1395
Assign SAMPLER_SET[945]: 1805  LLC: 2048
Assign SAMPLER_SET[945]: 1178  LLC: 2048
SAMPLER_SET[945]: 1178
Assign SAMPLER_SET[946]: 36  LLC: 2048
Assign SAMPLER_SET[946]: 1638  LLC: 2048
SAMPLER_SET[946]: 1638
Assign SAMPLER_SET[947]: 737  LLC: 2048
SAMPLER_SET[947]: 737
Assign SAMPLER_SET[948]: 1758  LLC: 2048
SAMPLER_SET[948]: 1758
Assign SAMPLER_SET[949]: 910  LLC: 2048
SAMPLER_SET[949]: 910
Assign SAMPLER_SET[950]: 1282  LLC: 2048
Assign SAMPLER_SET[950]: 1035  LLC: 2048
Assign SAMPLER_SET[950]: 1928  LLC: 2048
Assign SAMPLER_SET[950]: 1117  LLC: 2048
Assign SAMPLER_SET[950]: 262  LLC: 2048
Assign SAMPLER_SET[950]: 300  LLC: 2048
SAMPLER_SET[950]: 300
Assign SAMPLER_SET[951]: 71  LLC: 2048
Assign SAMPLER_SET[951]: 661  LLC: 2048
Assign SAMPLER_SET[951]: 1093  LLC: 2048
Assign SAMPLER_SET[951]: 351  LLC: 2048
SAMPLER_SET[951]: 351
Assign SAMPLER_SET[952]: 1020  LLC: 2048
Assign SAMPLER_SET[952]: 631  LLC: 2048
SAMPLER_SET[952]: 631
Assign SAMPLER_SET[953]: 273  LLC: 2048
Assign SAMPLER_SET[953]: 55  LLC: 2048
SAMPLER_SET[953]: 55
Assign SAMPLER_SET[954]: 260  LLC: 2048
SAMPLER_SET[954]: 260
Assign SAMPLER_SET[955]: 1766  LLC: 2048
Assign SAMPLER_SET[955]: 870  LLC: 2048
Assign SAMPLER_SET[955]: 1403  LLC: 2048
SAMPLER_SET[955]: 1403
Assign SAMPLER_SET[956]: 1094  LLC: 2048
Assign SAMPLER_SET[956]: 1405  LLC: 2048
SAMPLER_SET[956]: 1405
Assign SAMPLER_SET[957]: 214  LLC: 2048
SAMPLER_SET[957]: 214
Assign SAMPLER_SET[958]: 1185  LLC: 2048
SAMPLER_SET[958]: 1185
Assign SAMPLER_SET[959]: 251  LLC: 2048
SAMPLER_SET[959]: 251
Assign SAMPLER_SET[960]: 109  LLC: 2048
Assign SAMPLER_SET[960]: 824  LLC: 2048
Assign SAMPLER_SET[960]: 11  LLC: 2048
Assign SAMPLER_SET[960]: 320  LLC: 2048
SAMPLER_SET[960]: 320
Assign SAMPLER_SET[961]: 535  LLC: 2048
Assign SAMPLER_SET[961]: 528  LLC: 2048
SAMPLER_SET[961]: 528
Assign SAMPLER_SET[962]: 1027  LLC: 2048
SAMPLER_SET[962]: 1027
Assign SAMPLER_SET[963]: 861  LLC: 2048
Assign SAMPLER_SET[963]: 1645  LLC: 2048
Assign SAMPLER_SET[963]: 1725  LLC: 2048
Assign SAMPLER_SET[963]: 1400  LLC: 2048
SAMPLER_SET[963]: 1400
Assign SAMPLER_SET[964]: 2003  LLC: 2048
Assign SAMPLER_SET[964]: 1545  LLC: 2048
Assign SAMPLER_SET[964]: 1893  LLC: 2048
SAMPLER_SET[964]: 1893
Assign SAMPLER_SET[965]: 118  LLC: 2048
SAMPLER_SET[965]: 118
Assign SAMPLER_SET[966]: 1063  LLC: 2048
SAMPLER_SET[966]: 1063
Assign SAMPLER_SET[967]: 1802  LLC: 2048
SAMPLER_SET[967]: 1802
Assign SAMPLER_SET[968]: 1185  LLC: 2048
Assign SAMPLER_SET[968]: 615  LLC: 2048
SAMPLER_SET[968]: 615
Assign SAMPLER_SET[969]: 1649  LLC: 2048
Assign SAMPLER_SET[969]: 1970  LLC: 2048
SAMPLER_SET[969]: 1970
Assign SAMPLER_SET[970]: 1511  LLC: 2048
SAMPLER_SET[970]: 1511
Assign SAMPLER_SET[971]: 1035  LLC: 2048
Assign SAMPLER_SET[971]: 1443  LLC: 2048
SAMPLER_SET[971]: 1443
Assign SAMPLER_SET[972]: 1728  LLC: 2048
Assign SAMPLER_SET[972]: 187  LLC: 2048
Assign SAMPLER_SET[972]: 1849  LLC: 2048
SAMPLER_SET[972]: 1849
Assign SAMPLER_SET[973]: 666  LLC: 2048
SAMPLER_SET[973]: 666
Assign SAMPLER_SET[974]: 1422  LLC: 2048
Assign SAMPLER_SET[974]: 1685  LLC: 2048
SAMPLER_SET[974]: 1685
Assign SAMPLER_SET[975]: 1107  LLC: 2048
Assign SAMPLER_SET[975]: 1510  LLC: 2048
SAMPLER_SET[975]: 1510
Assign SAMPLER_SET[976]: 2027  LLC: 2048
SAMPLER_SET[976]: 2027
Assign SAMPLER_SET[977]: 1425  LLC: 2048
Assign SAMPLER_SET[977]: 906  LLC: 2048
Assign SAMPLER_SET[977]: 1626  LLC: 2048
Assign SAMPLER_SET[977]: 1462  LLC: 2048
Assign SAMPLER_SET[977]: 2009  LLC: 2048
SAMPLER_SET[977]: 2009
Assign SAMPLER_SET[978]: 1495  LLC: 2048
Assign SAMPLER_SET[978]: 1106  LLC: 2048
Assign SAMPLER_SET[978]: 575  LLC: 2048
Assign SAMPLER_SET[978]: 1490  LLC: 2048
SAMPLER_SET[978]: 1490
Assign SAMPLER_SET[979]: 436  LLC: 2048
Assign SAMPLER_SET[979]: 1479  LLC: 2048
SAMPLER_SET[979]: 1479
Assign SAMPLER_SET[980]: 1373  LLC: 2048
SAMPLER_SET[980]: 1373
Assign SAMPLER_SET[981]: 1801  LLC: 2048
SAMPLER_SET[981]: 1801
Assign SAMPLER_SET[982]: 1950  LLC: 2048
Assign SAMPLER_SET[982]: 1812  LLC: 2048
SAMPLER_SET[982]: 1812
Assign SAMPLER_SET[983]: 591  LLC: 2048
Assign SAMPLER_SET[983]: 1500  LLC: 2048
Assign SAMPLER_SET[983]: 588  LLC: 2048
SAMPLER_SET[983]: 588
Assign SAMPLER_SET[984]: 1157  LLC: 2048
Assign SAMPLER_SET[984]: 83  LLC: 2048
SAMPLER_SET[984]: 83
Assign SAMPLER_SET[985]: 488  LLC: 2048
SAMPLER_SET[985]: 488
Assign SAMPLER_SET[986]: 1708  LLC: 2048
Assign SAMPLER_SET[986]: 165  LLC: 2048
SAMPLER_SET[986]: 165
Assign SAMPLER_SET[987]: 264  LLC: 2048
SAMPLER_SET[987]: 264
Assign SAMPLER_SET[988]: 1334  LLC: 2048
Assign SAMPLER_SET[988]: 1954  LLC: 2048
Assign SAMPLER_SET[988]: 836  LLC: 2048
SAMPLER_SET[988]: 836
Assign SAMPLER_SET[989]: 132  LLC: 2048
SAMPLER_SET[989]: 132
Assign SAMPLER_SET[990]: 36  LLC: 2048
Assign SAMPLER_SET[990]: 384  LLC: 2048
Assign SAMPLER_SET[990]: 1354  LLC: 2048
Assign SAMPLER_SET[990]: 821  LLC: 2048
Assign SAMPLER_SET[990]: 21  LLC: 2048
Assign SAMPLER_SET[990]: 323  LLC: 2048
SAMPLER_SET[990]: 323
Assign SAMPLER_SET[991]: 1343  LLC: 2048
Assign SAMPLER_SET[991]: 1400  LLC: 2048
Assign SAMPLER_SET[991]: 1240  LLC: 2048
SAMPLER_SET[991]: 1240
Assign SAMPLER_SET[992]: 915  LLC: 2048
SAMPLER_SET[992]: 915
Assign SAMPLER_SET[993]: 150  LLC: 2048
SAMPLER_SET[993]: 150
Assign SAMPLER_SET[994]: 251  LLC: 2048
Assign SAMPLER_SET[994]: 217  LLC: 2048
Assign SAMPLER_SET[994]: 1913  LLC: 2048
SAMPLER_SET[994]: 1913
Assign SAMPLER_SET[995]: 1468  LLC: 2048
SAMPLER_SET[995]: 1468
Assign SAMPLER_SET[996]: 979  LLC: 2048
Assign SAMPLER_SET[996]: 10  LLC: 2048
Assign SAMPLER_SET[996]: 222  LLC: 2048
Assign SAMPLER_SET[996]: 741  LLC: 2048
SAMPLER_SET[996]: 741
Assign SAMPLER_SET[997]: 1372  LLC: 2048
Assign SAMPLER_SET[997]: 399  LLC: 2048
Assign SAMPLER_SET[997]: 1735  LLC: 2048
Assign SAMPLER_SET[997]: 1425  LLC: 2048
Assign SAMPLER_SET[997]: 1236  LLC: 2048
Assign SAMPLER_SET[997]: 44  LLC: 2048
Assign SAMPLER_SET[997]: 338  LLC: 2048
Assign SAMPLER_SET[997]: 1760  LLC: 2048
SAMPLER_SET[997]: 1760
Assign SAMPLER_SET[998]: 1463  LLC: 2048
SAMPLER_SET[998]: 1463
Assign SAMPLER_SET[999]: 1391  LLC: 2048
SAMPLER_SET[999]: 1391
Assign SAMPLER_SET[1000]: 880  LLC: 2048
Assign SAMPLER_SET[1000]: 155  LLC: 2048
Assign SAMPLER_SET[1000]: 1496  LLC: 2048
Assign SAMPLER_SET[1000]: 925  LLC: 2048
Assign SAMPLER_SET[1000]: 1120  LLC: 2048
SAMPLER_SET[1000]: 1120
Assign SAMPLER_SET[1001]: 1790  LLC: 2048
SAMPLER_SET[1001]: 1790
Assign SAMPLER_SET[1002]: 324  LLC: 2048
SAMPLER_SET[1002]: 324
Assign SAMPLER_SET[1003]: 605  LLC: 2048
SAMPLER_SET[1003]: 605
Assign SAMPLER_SET[1004]: 1263  LLC: 2048
Assign SAMPLER_SET[1004]: 839  LLC: 2048
SAMPLER_SET[1004]: 839
Assign SAMPLER_SET[1005]: 2006  LLC: 2048
SAMPLER_SET[1005]: 2006
[...]
Assign SAMPLER_SET[2047]: 17  LLC: 2048
Assign SAMPLER_SET[2047]: 1873  LLC: 2048
Assign SAMPLER_SET[2047]: 1252  LLC: 2048
Assign SAMPLER_SET[2047]: 1011  LLC: 2048
Assign SAMPLER_SET[2047]: 1739  LLC: 2048
Assign SAMPLER_SET[2047]: 1049  LLC: 2048
Assign SAMPLER_SET[2047]: 1977  LLC: 2048
Assign SAMPLER_SET[2047]: 1557  LLC: 2048
Assign SAMPLER_SET[2047]: 754  LLC: 2048
Assign SAMPLER_SET[2047]: 791  LLC: 2048
Assign SAMPLER_SET[2047]: 217  LLC: 2048
Assign SAMPLER_SET[2047]: 1601  LLC: 2048
Assign SAMPLER_SET[2047]: 358  LLC: 2048
Assign SAMPLER_SET[2047]: 856  LLC: 2048
Assign SAMPLER_SET[2047]: 1889  LLC: 2048
Assign SAMPLER_SET[2047]: 943  LLC: 2048
Assign SAMPLER_SET[2047]: 764  LLC: 2048
Assign SAMPLER_SET[2047]: 1438  LLC: 2048
SAMPLER_SET[2047]: 1438
Heartbeat CPU 0 instructions: 10000000 cycles: 3152167 heartbeat IPC: 3.17242 cumulative IPC: 3.17242 (Simulation time: 0 hr 0 min 21 sec) 
Heartbeat CPU 0 instructions: 20000000 cycles: 6302257 heartbeat IPC: 3.17451 cumulative IPC: 3.17347 (Simulation time: 0 hr 0 min 41 sec) 
Heartbeat CPU 0 instructions: 30000000 cycles: 9454293 heartbeat IPC: 3.17255 cumulative IPC: 3.17316 (Simulation time: 0 hr 1 min 2 sec) 
Heartbeat CPU 0 instructions: 40000000 cycles: 12606357 heartbeat IPC: 3.17252 cumulative IPC: 3.173 (Simulation time: 0 hr 1 min 23 sec) 
Heartbeat CPU 0 instructions: 50000001 cycles: 15758325 heartbeat IPC: 3.17262 cumulative IPC: 3.17293 (Simulation time: 0 hr 1 min 44 sec) 
Heartbeat CPU 0 instructions: 60000003 cycles: 18910228 heartbeat IPC: 3.17269 cumulative IPC: 3.17289 (Simulation time: 0 hr 2 min 4 sec) 
Heartbeat CPU 0 instructions: 70000002 cycles: 22062277 heartbeat IPC: 3.17254 cumulative IPC: 3.17284 (Simulation time: 0 hr 2 min 25 sec) 
Heartbeat CPU 0 instructions: 80000001 cycles: 25212512 heartbeat IPC: 3.17437 cumulative IPC: 3.17303 (Simulation time: 0 hr 2 min 46 sec) 
Heartbeat CPU 0 instructions: 90000000 cycles: 28364381 heartbeat IPC: 3.17272 cumulative IPC: 3.17299 (Simulation time: 0 hr 3 min 7 sec) 
Heartbeat CPU 0 instructions: 100000002 cycles: 31516445 heartbeat IPC: 3.17253 cumulative IPC: 3.17295 (Simulation time: 0 hr 3 min 27 sec) 

Warmup complete CPU 0 instructions: 100000002 cycles: 31516445 (Simulation time: 0 hr 3 min 27 sec) 

Heartbeat CPU 0 instructions: 110000000 cycles: 47295464 heartbeat IPC: 0.633753 cumulative IPC: 0.633753 (Simulation time: 0 hr 3 min 58 sec) 
Heartbeat CPU 0 instructions: 120000002 cycles: 63233306 heartbeat IPC: 0.627438 cumulative IPC: 0.630579 (Simulation time: 0 hr 4 min 28 sec) 
Heartbeat CPU 0 instructions: 130000000 cycles: 78966858 heartbeat IPC: 0.635584 cumulative IPC: 0.632239 (Simulation time: 0 hr 4 min 58 sec) 
Heartbeat CPU 0 instructions: 140000001 cycles: 94798123 heartbeat IPC: 0.631662 cumulative IPC: 0.632095 (Simulation time: 0 hr 5 min 28 sec) 
Heartbeat CPU 0 instructions: 150000002 cycles: 110615386 heartbeat IPC: 0.632221 cumulative IPC: 0.63212 (Simulation time: 0 hr 5 min 58 sec) 
Heartbeat CPU 0 instructions: 160000000 cycles: 126385868 heartbeat IPC: 0.634096 cumulative IPC: 0.632448 (Simulation time: 0 hr 6 min 27 sec) 
Heartbeat CPU 0 instructions: 170000001 cycles: 142258916 heartbeat IPC: 0.629999 cumulative IPC: 0.632097 (Simulation time: 0 hr 6 min 57 sec) 
Heartbeat CPU 0 instructions: 180000002 cycles: 158359337 heartbeat IPC: 0.621102 cumulative IPC: 0.630701 (Simulation time: 0 hr 7 min 28 sec) 
Heartbeat CPU 0 instructions: 190000002 cycles: 174196030 heartbeat IPC: 0.631445 cumulative IPC: 0.630784 (Simulation time: 0 hr 7 min 58 sec) 
Heartbeat CPU 0 instructions: 200000001 cycles: 189940436 heartbeat IPC: 0.635146 cumulative IPC: 0.631218 (Simulation time: 0 hr 8 min 27 sec) 
Heartbeat CPU 0 instructions: 210000000 cycles: 205811532 heartbeat IPC: 0.630076 cumulative IPC: 0.631114 (Simulation time: 0 hr 8 min 57 sec) 
Heartbeat CPU 0 instructions: 220000000 cycles: 221701428 heartbeat IPC: 0.629331 cumulative IPC: 0.630965 (Simulation time: 0 hr 9 min 28 sec) 
Heartbeat CPU 0 instructions: 230000003 cycles: 237568227 heartbeat IPC: 0.630247 cumulative IPC: 0.630909 (Simulation time: 0 hr 9 min 58 sec) 
Heartbeat CPU 0 instructions: 240000003 cycles: 253205018 heartbeat IPC: 0.639517 cumulative IPC: 0.631517 (Simulation time: 0 hr 10 min 28 sec) 
Heartbeat CPU 0 instructions: 250000003 cycles: 268939524 heartbeat IPC: 0.635546 cumulative IPC: 0.631784 (Simulation time: 0 hr 10 min 58 sec) 
Heartbeat CPU 0 instructions: 260000000 cycles: 284712340 heartbeat IPC: 0.634002 cumulative IPC: 0.631922 (Simulation time: 0 hr 11 min 29 sec) 
Heartbeat CPU 0 instructions: 270000001 cycles: 311533145 heartbeat IPC: 0.372845 cumulative IPC: 0.607107 (Simulation time: 0 hr 12 min 12 sec) 
Heartbeat CPU 0 instructions: 280000000 cycles: 327348422 heartbeat IPC: 0.6323 cumulative IPC: 0.608454 (Simulation time: 0 hr 12 min 42 sec) 
Heartbeat CPU 0 instructions: 290000002 cycles: 343195289 heartbeat IPC: 0.63104 cumulative IPC: 0.609602 (Simulation time: 0 hr 13 min 13 sec) 
Heartbeat CPU 0 instructions: 300000000 cycles: 358950848 heartbeat IPC: 0.634696 cumulative IPC: 0.610809 (Simulation time: 0 hr 13 min 43 sec) 
Heartbeat CPU 0 instructions: 310000003 cycles: 375178688 heartbeat IPC: 0.616225 cumulative IPC: 0.611065 (Simulation time: 0 hr 14 min 14 sec) 
Heartbeat CPU 0 instructions: 320000000 cycles: 391604577 heartbeat IPC: 0.608795 cumulative IPC: 0.610962 (Simulation time: 0 hr 14 min 45 sec) 
Heartbeat CPU 0 instructions: 330000000 cycles: 408480103 heartbeat IPC: 0.592574 cumulative IPC: 0.610138 (Simulation time: 0 hr 15 min 16 sec) 
Heartbeat CPU 0 instructions: 340000000 cycles: 425777364 heartbeat IPC: 0.578126 cumulative IPC: 0.608734 (Simulation time: 0 hr 15 min 48 sec) 
Heartbeat CPU 0 instructions: 350000000 cycles: 443260110 heartbeat IPC: 0.571993 cumulative IPC: 0.607174 (Simulation time: 0 hr 16 min 20 sec) 
Heartbeat CPU 0 instructions: 360000000 cycles: 460937886 heartbeat IPC: 0.565682 cumulative IPC: 0.605466 (Simulation time: 0 hr 16 min 53 sec) 
Heartbeat CPU 0 instructions: 370000001 cycles: 478538968 heartbeat IPC: 0.568147 cumulative IPC: 0.603996 (Simulation time: 0 hr 17 min 25 sec) 
Heartbeat CPU 0 instructions: 380000001 cycles: 495865545 heartbeat IPC: 0.577148 cumulative IPC: 0.602995 (Simulation time: 0 hr 17 min 57 sec) 
Heartbeat CPU 0 instructions: 390000000 cycles: 513362826 heartbeat IPC: 0.571517 cumulative IPC: 0.601852 (Simulation time: 0 hr 18 min 29 sec) 
Heartbeat CPU 0 instructions: 400000001 cycles: 530602986 heartbeat IPC: 0.580041 cumulative IPC: 0.601098 (Simulation time: 0 hr 19 min 1 sec) 
Heartbeat CPU 0 instructions: 410000001 cycles: 547365206 heartbeat IPC: 0.59658 cumulative IPC: 0.600951 (Simulation time: 0 hr 19 min 33 sec) 
Heartbeat CPU 0 instructions: 420000003 cycles: 564158456 heartbeat IPC: 0.595477 cumulative IPC: 0.600779 (Simulation time: 0 hr 20 min 4 sec) 
Heartbeat CPU 0 instructions: 430000001 cycles: 580384380 heartbeat IPC: 0.616298 cumulative IPC: 0.601238 (Simulation time: 0 hr 20 min 35 sec) 
Heartbeat CPU 0 instructions: 440000000 cycles: 597084221 heartbeat IPC: 0.598808 cumulative IPC: 0.601166 (Simulation time: 0 hr 21 min 6 sec) 
Heartbeat CPU 0 instructions: 450000001 cycles: 613209061 heartbeat IPC: 0.620161 cumulative IPC: 0.601692 (Simulation time: 0 hr 21 min 37 sec) 
Heartbeat CPU 0 instructions: 460000001 cycles: 629715349 heartbeat IPC: 0.60583 cumulative IPC: 0.601807 (Simulation time: 0 hr 22 min 8 sec) 
Heartbeat CPU 0 instructions: 470000000 cycles: 645753894 heartbeat IPC: 0.623498 cumulative IPC: 0.602373 (Simulation time: 0 hr 22 min 39 sec) 
Heartbeat CPU 0 instructions: 480000001 cycles: 661965004 heartbeat IPC: 0.616861 cumulative IPC: 0.602745 (Simulation time: 0 hr 23 min 10 sec) 
Heartbeat CPU 0 instructions: 490000000 cycles: 678082074 heartbeat IPC: 0.62046 cumulative IPC: 0.603187 (Simulation time: 0 hr 23 min 41 sec) 
Heartbeat CPU 0 instructions: 500000002 cycles: 694334850 heartbeat IPC: 0.61528 cumulative IPC: 0.603484 (Simulation time: 0 hr 24 min 12 sec) 
Heartbeat CPU 0 instructions: 510000001 cycles: 710587003 heartbeat IPC: 0.615303 cumulative IPC: 0.603766 (Simulation time: 0 hr 24 min 43 sec) 
Heartbeat CPU 0 instructions: 520000002 cycles: 726485992 heartbeat IPC: 0.628971 cumulative IPC: 0.604343 (Simulation time: 0 hr 25 min 13 sec) 
Heartbeat CPU 0 instructions: 530000000 cycles: 742554621 heartbeat IPC: 0.62233 cumulative IPC: 0.60475 (Simulation time: 0 hr 25 min 44 sec) 
Heartbeat CPU 0 instructions: 540000001 cycles: 758817298 heartbeat IPC: 0.614905 cumulative IPC: 0.604977 (Simulation time: 0 hr 26 min 15 sec) 
Heartbeat CPU 0 instructions: 550000000 cycles: 774945862 heartbeat IPC: 0.620018 cumulative IPC: 0.605303 (Simulation time: 0 hr 26 min 46 sec) 
Heartbeat CPU 0 instructions: 560000003 cycles: 791188836 heartbeat IPC: 0.615651 cumulative IPC: 0.605524 (Simulation time: 0 hr 27 min 17 sec) 
Heartbeat CPU 0 instructions: 570000001 cycles: 807561867 heartbeat IPC: 0.61076 cumulative IPC: 0.605635 (Simulation time: 0 hr 27 min 48 sec) 
Heartbeat CPU 0 instructions: 580000001 cycles: 823535221 heartbeat IPC: 0.626043 cumulative IPC: 0.606046 (Simulation time: 0 hr 28 min 19 sec) 
Heartbeat CPU 0 instructions: 590000001 cycles: 839764654 heartbeat IPC: 0.616164 cumulative IPC: 0.606249 (Simulation time: 0 hr 28 min 49 sec) 
Heartbeat CPU 0 instructions: 600000001 cycles: 855879308 heartbeat IPC: 0.620553 cumulative IPC: 0.606529 (Simulation time: 0 hr 29 min 20 sec) 
Heartbeat CPU 0 instructions: 610000001 cycles: 871961057 heartbeat IPC: 0.621823 cumulative IPC: 0.606822 (Simulation time: 0 hr 29 min 51 sec) 
Heartbeat CPU 0 instructions: 620000000 cycles: 888049984 heartbeat IPC: 0.621545 cumulative IPC: 0.607098 (Simulation time: 0 hr 30 min 22 sec) 
Heartbeat CPU 0 instructions: 630000000 cycles: 904361410 heartbeat IPC: 0.613067 cumulative IPC: 0.60721 (Simulation time: 0 hr 30 min 53 sec) 
Heartbeat CPU 0 instructions: 640000000 cycles: 920291507 heartbeat IPC: 0.627743 cumulative IPC: 0.607578 (Simulation time: 0 hr 31 min 23 sec) 
Heartbeat CPU 0 instructions: 650000002 cycles: 936684676 heartbeat IPC: 0.61001 cumulative IPC: 0.607622 (Simulation time: 0 hr 31 min 54 sec) 
Heartbeat CPU 0 instructions: 660000000 cycles: 952574965 heartbeat IPC: 0.629315 cumulative IPC: 0.607996 (Simulation time: 0 hr 32 min 25 sec) 
Heartbeat CPU 0 instructions: 670000000 cycles: 968622794 heartbeat IPC: 0.623137 cumulative IPC: 0.608255 (Simulation time: 0 hr 32 min 56 sec) 
Heartbeat CPU 0 instructions: 680000001 cycles: 984730808 heartbeat IPC: 0.620809 cumulative IPC: 0.608468 (Simulation time: 0 hr 33 min 26 sec) 
Heartbeat CPU 0 instructions: 690000001 cycles: 1000780053 heartbeat IPC: 0.623082 cumulative IPC: 0.60871 (Simulation time: 0 hr 33 min 57 sec) 
Heartbeat CPU 0 instructions: 700000002 cycles: 1017702714 heartbeat IPC: 0.590924 cumulative IPC: 0.608404 (Simulation time: 0 hr 34 min 29 sec) 
Heartbeat CPU 0 instructions: 710000001 cycles: 1044363109 heartbeat IPC: 0.375088 cumulative IPC: 0.602263 (Simulation time: 0 hr 35 min 12 sec) 
Heartbeat CPU 0 instructions: 720000002 cycles: 1060510412 heartbeat IPC: 0.619299 cumulative IPC: 0.60253 (Simulation time: 0 hr 35 min 43 sec) 
Heartbeat CPU 0 instructions: 730000000 cycles: 1076656524 heartbeat IPC: 0.619344 cumulative IPC: 0.60279 (Simulation time: 0 hr 36 min 14 sec) 
Heartbeat CPU 0 instructions: 740000000 cycles: 1092908540 heartbeat IPC: 0.615308 cumulative IPC: 0.602982 (Simulation time: 0 hr 36 min 44 sec) 
Heartbeat CPU 0 instructions: 750000001 cycles: 1109476875 heartbeat IPC: 0.603561 cumulative IPC: 0.602991 (Simulation time: 0 hr 37 min 16 sec) 
Heartbeat CPU 0 instructions: 760000003 cycles: 1126418068 heartbeat IPC: 0.590277 cumulative IPC: 0.602794 (Simulation time: 0 hr 37 min 47 sec) 
Heartbeat CPU 0 instructions: 770000000 cycles: 1143757890 heartbeat IPC: 0.576707 cumulative IPC: 0.602387 (Simulation time: 0 hr 38 min 19 sec) 
Heartbeat CPU 0 instructions: 780000000 cycles: 1161429633 heartbeat IPC: 0.565875 cumulative IPC: 0.601816 (Simulation time: 0 hr 38 min 52 sec) 
Heartbeat CPU 0 instructions: 790000000 cycles: 1179272814 heartbeat IPC: 0.560438 cumulative IPC: 0.601173 (Simulation time: 0 hr 39 min 24 sec) 
Heartbeat CPU 0 instructions: 800000002 cycles: 1197229498 heartbeat IPC: 0.556896 cumulative IPC: 0.600491 (Simulation time: 0 hr 39 min 57 sec) 
Heartbeat CPU 0 instructions: 810000001 cycles: 1215306688 heartbeat IPC: 0.553183 cumulative IPC: 0.599768 (Simulation time: 0 hr 40 min 29 sec) 
Heartbeat CPU 0 instructions: 820000000 cycles: 1233394293 heartbeat IPC: 0.552865 cumulative IPC: 0.599063 (Simulation time: 0 hr 41 min 2 sec) 
Heartbeat CPU 0 instructions: 830000003 cycles: 1251144312 heartbeat IPC: 0.56338 cumulative IPC: 0.598543 (Simulation time: 0 hr 41 min 35 sec) 
Heartbeat CPU 0 instructions: 840000003 cycles: 1268349041 heartbeat IPC: 0.581236 cumulative IPC: 0.598302 (Simulation time: 0 hr 42 min 7 sec) 
Heartbeat CPU 0 instructions: 850000003 cycles: 1285473368 heartbeat IPC: 0.583965 cumulative IPC: 0.598107 (Simulation time: 0 hr 42 min 39 sec) 
Heartbeat CPU 0 instructions: 860000000 cycles: 1302384143 heartbeat IPC: 0.591339 cumulative IPC: 0.598017 (Simulation time: 0 hr 43 min 10 sec) 
Heartbeat CPU 0 instructions: 870000000 cycles: 1318898714 heartbeat IPC: 0.605526 cumulative IPC: 0.598113 (Simulation time: 0 hr 43 min 42 sec) 
Heartbeat CPU 0 instructions: 880000000 cycles: 1334128958 heartbeat IPC: 0.656588 cumulative IPC: 0.598797 (Simulation time: 0 hr 44 min 12 sec) 
Heartbeat CPU 0 instructions: 890000000 cycles: 1349836515 heartbeat IPC: 0.636636 cumulative IPC: 0.599248 (Simulation time: 0 hr 44 min 42 sec) 
Heartbeat CPU 0 instructions: 900000002 cycles: 1365925342 heartbeat IPC: 0.621549 cumulative IPC: 0.599516 (Simulation time: 0 hr 45 min 13 sec) 
Heartbeat CPU 0 instructions: 910000002 cycles: 1381749961 heartbeat IPC: 0.631927 cumulative IPC: 0.599896 (Simulation time: 0 hr 45 min 44 sec) 
Heartbeat CPU 0 instructions: 920000002 cycles: 1397577752 heartbeat IPC: 0.6318 cumulative IPC: 0.600266 (Simulation time: 0 hr 46 min 14 sec) 
Heartbeat CPU 0 instructions: 930000001 cycles: 1413325927 heartbeat IPC: 0.634994 cumulative IPC: 0.600662 (Simulation time: 0 hr 46 min 45 sec) 
Heartbeat CPU 0 instructions: 940000003 cycles: 1429093395 heartbeat IPC: 0.634217 cumulative IPC: 0.60104 (Simulation time: 0 hr 47 min 15 sec) 
Heartbeat CPU 0 instructions: 950000001 cycles: 1445076017 heartbeat IPC: 0.625679 cumulative IPC: 0.601319 (Simulation time: 0 hr 47 min 46 sec) 
Heartbeat CPU 0 instructions: 960000003 cycles: 1460338281 heartbeat IPC: 0.655211 cumulative IPC: 0.601894 (Simulation time: 0 hr 48 min 16 sec) 
Heartbeat CPU 0 instructions: 970000000 cycles: 1476241783 heartbeat IPC: 0.628792 cumulative IPC: 0.602191 (Simulation time: 0 hr 48 min 46 sec) 
Heartbeat CPU 0 instructions: 980000000 cycles: 1492005303 heartbeat IPC: 0.634376 cumulative IPC: 0.602538 (Simulation time: 0 hr 49 min 17 sec) 
Heartbeat CPU 0 instructions: 990000000 cycles: 1508034310 heartbeat IPC: 0.623869 cumulative IPC: 0.60277 (Simulation time: 0 hr 49 min 47 sec) 
Heartbeat CPU 0 instructions: 1000000003 cycles: 1523547463 heartbeat IPC: 0.644614 cumulative IPC: 0.603205 (Simulation time: 0 hr 50 min 18 sec) 
Heartbeat CPU 0 instructions: 1010000000 cycles: 1539631287 heartbeat IPC: 0.621742 cumulative IPC: 0.603402 (Simulation time: 0 hr 50 min 48 sec) 
Heartbeat CPU 0 instructions: 1020000000 cycles: 1555440098 heartbeat IPC: 0.632559 cumulative IPC: 0.603705 (Simulation time: 0 hr 51 min 19 sec) 
Heartbeat CPU 0 instructions: 1030000002 cycles: 1571151525 heartbeat IPC: 0.63648 cumulative IPC: 0.604039 (Simulation time: 0 hr 51 min 50 sec) 
Heartbeat CPU 0 instructions: 1040000003 cycles: 1586846346 heartbeat IPC: 0.637153 cumulative IPC: 0.604373 (Simulation time: 0 hr 52 min 20 sec) 
Heartbeat CPU 0 instructions: 1050000002 cycles: 1602786659 heartbeat IPC: 0.62734 cumulative IPC: 0.604606 (Simulation time: 0 hr 52 min 51 sec) 
Heartbeat CPU 0 instructions: 1060000003 cycles: 1618629897 heartbeat IPC: 0.631184 cumulative IPC: 0.604872 (Simulation time: 0 hr 53 min 21 sec) 
Heartbeat CPU 0 instructions: 1070000003 cycles: 1634795345 heartbeat IPC: 0.618603 cumulative IPC: 0.60501 (Simulation time: 0 hr 53 min 52 sec) 
Heartbeat CPU 0 instructions: 1080000001 cycles: 1650386302 heartbeat IPC: 0.641397 cumulative IPC: 0.605361 (Simulation time: 0 hr 54 min 23 sec) 
Heartbeat CPU 0 instructions: 1090000003 cycles: 1666211960 heartbeat IPC: 0.631885 cumulative IPC: 0.605617 (Simulation time: 0 hr 54 min 53 sec) 
Heartbeat CPU 0 instructions: 1100000000 cycles: 1682117892 heartbeat IPC: 0.628696 cumulative IPC: 0.60584 (Simulation time: 0 hr 55 min 24 sec) 
Finished CPU 0 instructions: 1000000000 cycles: 1650601449 cumulative IPC: 0.60584 (Simulation time: 0 hr 55 min 24 sec) 

ChampSim completed all CPUs

Region of Interest Statistics

CPU 0 cumulative IPC: 0.60584 instructions: 1000000000 cycles: 1650601449
L1D TOTAL     ACCESS:  161844061  HIT:  112928080  MISS:   48915981
L1D LOAD      ACCESS:   59472531  HIT:   52056444  MISS:    7416087
L1D RFO       ACCESS:  102371530  HIT:   60871636  MISS:   41499894
L1D PREFETCH  ACCESS:          0  HIT:          0  MISS:          0
L1D WRITEBACK ACCESS:          0  HIT:          0  MISS:          0
L1D PREFETCH  REQUESTED:          0  ISSUED:          0  USEFUL:          0  USELESS:          0
L1D AVERAGE MISS LATENCY: 280.057 cycles
L1I TOTAL     ACCESS:  159032624  HIT:  159032616  MISS:          8
L1I LOAD      ACCESS:  159032624  HIT:  159032616  MISS:          8
L1I RFO       ACCESS:          0  HIT:          0  MISS:          0
L1I PREFETCH  ACCESS:          0  HIT:          0  MISS:          0
L1I WRITEBACK ACCESS:          0  HIT:          0  MISS:          0
L1I PREFETCH  REQUESTED:          0  ISSUED:          0  USEFUL:          0  USELESS:          0
L1I AVERAGE MISS LATENCY: 454.5 cycles
L2C TOTAL     ACCESS:   90415870  HIT:   60544064  MISS:   29871806
L2C LOAD      ACCESS:    7416095  HIT:       5181  MISS:    7410914
L2C RFO       ACCESS:   41499878  HIT:   19040287  MISS:   22459591
L2C PREFETCH  ACCESS:          0  HIT:          0  MISS:          0
L2C WRITEBACK ACCESS:   41499897  HIT:   41498596  MISS:       1301
L2C PREFETCH  REQUESTED:          0  ISSUED:          0  USEFUL:          0  USELESS:          0
L2C AVERAGE MISS LATENCY: 435.613 cycles
LLC TOTAL     ACCESS:   52331246  HIT:    4823780  MISS:   47507466
LLC LOAD      ACCESS:    7410914  HIT:       1322  MISS:    7409592
LLC RFO       ACCESS:   22459555  HIT:    1260372  MISS:   21199183
LLC PREFETCH  ACCESS:          0  HIT:          0  MISS:          0
LLC WRITEBACK ACCESS:   22460777  HIT:    3562086  MISS:   18898691
LLC PREFETCH  REQUESTED:          0  ISSUED:          0  USEFUL:          0  USELESS:          0
LLC AVERAGE MISS LATENCY: 247.931 cycles
Major fault: 0 Minor fault: 103151
==============================
Perceptron RRIP Stats:
   Num Updates:          53364134
   Num Primary Trains:   541305
   Num Secondary Trains: 256576
==============================
primary_perceptron #0: 3 -1 -3 -5 -5 1 -1 -5 3 -3 3 1 1 1 -7 -25 
secondary_perceptron #0: 4 -8 -4 -6 -4 6 -4 -10 0 -8 4 0 0 2 -4 -8 2 2 4 0 -52 


DRAM Statistics
 CHANNEL 0
 RQ ROW_BUFFER_HIT:    2432636  ROW_BUFFER_MISS:   26174247
 DBUS_CONGESTED:   27960806
 WQ ROW_BUFFER_HIT:    6880300  ROW_BUFFER_MISS:   14321212  FULL:       2789

 AVG_CONGESTED_CYCLE: 6

CPU 0 Branch Prediction Accuracy: 99.2955% MPKI: 0.099075 Average ROB Occupancy at Mispredict: 181.785

Branch types
NOT_BRANCH: 985936500 98.5936%
BRANCH_DIRECT_JUMP: 5411566 0.541157%
BRANCH_INDIRECT: 0 0%
BRANCH_CONDITIONAL: 8651860 0.865186%
BRANCH_DIRECT_CALL: 4 4e-07%
BRANCH_INDIRECT_CALL: 0 0%
BRANCH_RETURN: 4 4e-07%
BRANCH_OTHER: 0 0%

