
*** ChampSim Multicore Out-of-Order Simulator ***

Warmup Instructions: 100000000
Simulation Instructions: 1000000000
Number of CPUs: 1
LLC sets: 2048
LLC ways: 16
Off-chip DRAM Size: 4096 MB Channels: 1 Width: 64-bit Data Rate: 3200 MT/s

CPU 0 runs /scratch/user/kevin.weston/dpc3-traces/471.champsimtrace.xz
CPU 0 Bimodal branch predictor
Initialize SRRIP state
Heartbeat CPU 0 instructions: 10000003 cycles: 4307380 heartbeat IPC: 2.3216 cumulative IPC: 2.3216 (Simulation time: 0 hr 0 min 26 sec) 
Heartbeat CPU 0 instructions: 20000003 cycles: 8528485 heartbeat IPC: 2.36905 cumulative IPC: 2.34508 (Simulation time: 0 hr 0 min 51 sec) 
Heartbeat CPU 0 instructions: 30000000 cycles: 12816222 heartbeat IPC: 2.33223 cumulative IPC: 2.34078 (Simulation time: 0 hr 1 min 17 sec) 
Heartbeat CPU 0 instructions: 40000002 cycles: 17070830 heartbeat IPC: 2.35039 cumulative IPC: 2.34318 (Simulation time: 0 hr 1 min 43 sec) 
Heartbeat CPU 0 instructions: 50000003 cycles: 21330783 heartbeat IPC: 2.34744 cumulative IPC: 2.34403 (Simulation time: 0 hr 2 min 9 sec) 
Heartbeat CPU 0 instructions: 60000003 cycles: 25611207 heartbeat IPC: 2.33622 cumulative IPC: 2.34272 (Simulation time: 0 hr 2 min 34 sec) 
Heartbeat CPU 0 instructions: 70000000 cycles: 29859319 heartbeat IPC: 2.35399 cumulative IPC: 2.34433 (Simulation time: 0 hr 3 min 0 sec) 
Heartbeat CPU 0 instructions: 80000003 cycles: 34132814 heartbeat IPC: 2.34001 cumulative IPC: 2.34379 (Simulation time: 0 hr 3 min 26 sec) 
Heartbeat CPU 0 instructions: 90000003 cycles: 38415317 heartbeat IPC: 2.33508 cumulative IPC: 2.34282 (Simulation time: 0 hr 3 min 52 sec) 
Heartbeat CPU 0 instructions: 100000000 cycles: 42678631 heartbeat IPC: 2.34559 cumulative IPC: 2.34309 (Simulation time: 0 hr 4 min 18 sec) 

Warmup complete CPU 0 instructions: 100000004 cycles: 42678632 (Simulation time: 0 hr 4 min 18 sec) 

Heartbeat CPU 0 instructions: 110000000 cycles: 80079357 heartbeat IPC: 0.267374 cumulative IPC: 0.267374 (Simulation time: 0 hr 4 min 44 sec) 
Heartbeat CPU 0 instructions: 120000000 cycles: 118015893 heartbeat IPC: 0.263598 cumulative IPC: 0.265473 (Simulation time: 0 hr 5 min 12 sec) 
Heartbeat CPU 0 instructions: 130000000 cycles: 153357591 heartbeat IPC: 0.282952 cumulative IPC: 0.271054 (Simulation time: 0 hr 5 min 38 sec) 
Heartbeat CPU 0 instructions: 140000001 cycles: 191553993 heartbeat IPC: 0.261805 cumulative IPC: 0.268681 (Simulation time: 0 hr 6 min 5 sec) 
Heartbeat CPU 0 instructions: 150000001 cycles: 227019749 heartbeat IPC: 0.281962 cumulative IPC: 0.271236 (Simulation time: 0 hr 6 min 32 sec) 
Heartbeat CPU 0 instructions: 160000000 cycles: 262811228 heartbeat IPC: 0.279396 cumulative IPC: 0.272563 (Simulation time: 0 hr 6 min 58 sec) 
Heartbeat CPU 0 instructions: 170000000 cycles: 301461915 heartbeat IPC: 0.258728 cumulative IPC: 0.270497 (Simulation time: 0 hr 7 min 26 sec) 
Heartbeat CPU 0 instructions: 180000002 cycles: 338279316 heartbeat IPC: 0.271611 cumulative IPC: 0.270635 (Simulation time: 0 hr 7 min 52 sec) 
Heartbeat CPU 0 instructions: 190000003 cycles: 374836989 heartbeat IPC: 0.27354 cumulative IPC: 0.270955 (Simulation time: 0 hr 8 min 19 sec) 
Heartbeat CPU 0 instructions: 200000000 cycles: 411742778 heartbeat IPC: 0.27096 cumulative IPC: 0.270956 (Simulation time: 0 hr 8 min 45 sec) 
Heartbeat CPU 0 instructions: 210000000 cycles: 450929664 heartbeat IPC: 0.255187 cumulative IPC: 0.269442 (Simulation time: 0 hr 9 min 13 sec) 
Heartbeat CPU 0 instructions: 220000000 cycles: 490136804 heartbeat IPC: 0.255056 cumulative IPC: 0.268181 (Simulation time: 0 hr 9 min 41 sec) 
Heartbeat CPU 0 instructions: 230000002 cycles: 531404896 heartbeat IPC: 0.242318 cumulative IPC: 0.265998 (Simulation time: 0 hr 10 min 10 sec) 
Heartbeat CPU 0 instructions: 240000002 cycles: 568997205 heartbeat IPC: 0.266012 cumulative IPC: 0.265999 (Simulation time: 0 hr 10 min 37 sec) 
Heartbeat CPU 0 instructions: 250000000 cycles: 607229105 heartbeat IPC: 0.261562 cumulative IPC: 0.265698 (Simulation time: 0 hr 11 min 5 sec) 
Heartbeat CPU 0 instructions: 260000003 cycles: 644124741 heartbeat IPC: 0.271035 cumulative IPC: 0.266025 (Simulation time: 0 hr 11 min 32 sec) 
Heartbeat CPU 0 instructions: 270000003 cycles: 682333123 heartbeat IPC: 0.261723 cumulative IPC: 0.265768 (Simulation time: 0 hr 11 min 59 sec) 
Heartbeat CPU 0 instructions: 280000000 cycles: 719321860 heartbeat IPC: 0.270352 cumulative IPC: 0.266019 (Simulation time: 0 hr 12 min 26 sec) 
Heartbeat CPU 0 instructions: 290000000 cycles: 754427363 heartbeat IPC: 0.284856 cumulative IPC: 0.266948 (Simulation time: 0 hr 12 min 53 sec) 
Heartbeat CPU 0 instructions: 300000002 cycles: 791518358 heartbeat IPC: 0.269607 cumulative IPC: 0.26708 (Simulation time: 0 hr 13 min 21 sec) 
Heartbeat CPU 0 instructions: 310000002 cycles: 827610553 heartbeat IPC: 0.277068 cumulative IPC: 0.267539 (Simulation time: 0 hr 13 min 48 sec) 
Heartbeat CPU 0 instructions: 320000000 cycles: 862777258 heartbeat IPC: 0.28436 cumulative IPC: 0.26826 (Simulation time: 0 hr 14 min 15 sec) 
Heartbeat CPU 0 instructions: 330000000 cycles: 898647456 heartbeat IPC: 0.278783 cumulative IPC: 0.268701 (Simulation time: 0 hr 14 min 42 sec) 
Heartbeat CPU 0 instructions: 340000002 cycles: 934051747 heartbeat IPC: 0.282452 cumulative IPC: 0.269248 (Simulation time: 0 hr 15 min 9 sec) 
Heartbeat CPU 0 instructions: 350000002 cycles: 968464963 heartbeat IPC: 0.290586 cumulative IPC: 0.270041 (Simulation time: 0 hr 15 min 36 sec) 
Heartbeat CPU 0 instructions: 360000003 cycles: 999210461 heartbeat IPC: 0.325251 cumulative IPC: 0.271815 (Simulation time: 0 hr 16 min 1 sec) 
Heartbeat CPU 0 instructions: 370000001 cycles: 1033411695 heartbeat IPC: 0.292387 cumulative IPC: 0.272525 (Simulation time: 0 hr 16 min 28 sec) 
Heartbeat CPU 0 instructions: 380000000 cycles: 1069437512 heartbeat IPC: 0.277579 cumulative IPC: 0.272703 (Simulation time: 0 hr 16 min 54 sec) 
Heartbeat CPU 0 instructions: 390000000 cycles: 1104461888 heartbeat IPC: 0.285515 cumulative IPC: 0.273125 (Simulation time: 0 hr 17 min 21 sec) 
Heartbeat CPU 0 instructions: 400000002 cycles: 1139768185 heartbeat IPC: 0.283236 cumulative IPC: 0.273451 (Simulation time: 0 hr 17 min 48 sec) 
Heartbeat CPU 0 instructions: 410000002 cycles: 1176338534 heartbeat IPC: 0.273446 cumulative IPC: 0.273451 (Simulation time: 0 hr 18 min 15 sec) 
Heartbeat CPU 0 instructions: 420000000 cycles: 1211130587 heartbeat IPC: 0.287422 cumulative IPC: 0.273867 (Simulation time: 0 hr 18 min 42 sec) 
Heartbeat CPU 0 instructions: 430000000 cycles: 1246629780 heartbeat IPC: 0.281697 cumulative IPC: 0.274098 (Simulation time: 0 hr 19 min 8 sec) 
Heartbeat CPU 0 instructions: 440000000 cycles: 1282884440 heartbeat IPC: 0.275827 cumulative IPC: 0.274148 (Simulation time: 0 hr 19 min 35 sec) 
Heartbeat CPU 0 instructions: 450000001 cycles: 1318306775 heartbeat IPC: 0.282308 cumulative IPC: 0.274375 (Simulation time: 0 hr 20 min 2 sec) 
Heartbeat CPU 0 instructions: 460000000 cycles: 1355256663 heartbeat IPC: 0.270637 cumulative IPC: 0.274269 (Simulation time: 0 hr 20 min 30 sec) 
Heartbeat CPU 0 instructions: 470000000 cycles: 1392279594 heartbeat IPC: 0.270103 cumulative IPC: 0.274155 (Simulation time: 0 hr 20 min 57 sec) 
Heartbeat CPU 0 instructions: 480000003 cycles: 1427021778 heartbeat IPC: 0.287835 cumulative IPC: 0.274498 (Simulation time: 0 hr 21 min 24 sec) 
Heartbeat CPU 0 instructions: 490000001 cycles: 1463275072 heartbeat IPC: 0.275837 cumulative IPC: 0.274533 (Simulation time: 0 hr 21 min 51 sec) 
Heartbeat CPU 0 instructions: 500000003 cycles: 1497734262 heartbeat IPC: 0.290198 cumulative IPC: 0.274904 (Simulation time: 0 hr 22 min 17 sec) 
Heartbeat CPU 0 instructions: 510000001 cycles: 1536257519 heartbeat IPC: 0.259583 cumulative IPC: 0.274508 (Simulation time: 0 hr 22 min 45 sec) 
Heartbeat CPU 0 instructions: 520000002 cycles: 1572306799 heartbeat IPC: 0.277398 cumulative IPC: 0.274577 (Simulation time: 0 hr 23 min 11 sec) 
Heartbeat CPU 0 instructions: 530000003 cycles: 1610755978 heartbeat IPC: 0.260084 cumulative IPC: 0.274221 (Simulation time: 0 hr 23 min 40 sec) 
Heartbeat CPU 0 instructions: 540000000 cycles: 1646588843 heartbeat IPC: 0.279073 cumulative IPC: 0.27433 (Simulation time: 0 hr 24 min 6 sec) 
Heartbeat CPU 0 instructions: 550000000 cycles: 1684514686 heartbeat IPC: 0.263672 cumulative IPC: 0.274083 (Simulation time: 0 hr 24 min 33 sec) 
Heartbeat CPU 0 instructions: 560000002 cycles: 1720277144 heartbeat IPC: 0.279623 cumulative IPC: 0.274201 (Simulation time: 0 hr 25 min 0 sec) 
Heartbeat CPU 0 instructions: 570000000 cycles: 1756774823 heartbeat IPC: 0.27399 cumulative IPC: 0.274197 (Simulation time: 0 hr 25 min 27 sec) 
Heartbeat CPU 0 instructions: 580000002 cycles: 1794916653 heartbeat IPC: 0.262179 cumulative IPC: 0.273935 (Simulation time: 0 hr 25 min 54 sec) 
Heartbeat CPU 0 instructions: 590000001 cycles: 1831531033 heartbeat IPC: 0.273117 cumulative IPC: 0.273919 (Simulation time: 0 hr 26 min 20 sec) 
Heartbeat CPU 0 instructions: 600000000 cycles: 1868732027 heartbeat IPC: 0.26881 cumulative IPC: 0.273815 (Simulation time: 0 hr 26 min 48 sec) 
Heartbeat CPU 0 instructions: 610000000 cycles: 1903765817 heartbeat IPC: 0.285439 cumulative IPC: 0.274033 (Simulation time: 0 hr 27 min 15 sec) 
Heartbeat CPU 0 instructions: 620000000 cycles: 1942144898 heartbeat IPC: 0.260559 cumulative IPC: 0.273761 (Simulation time: 0 hr 27 min 44 sec) 
Heartbeat CPU 0 instructions: 630000002 cycles: 1979068646 heartbeat IPC: 0.270828 cumulative IPC: 0.273705 (Simulation time: 0 hr 28 min 11 sec) 
Heartbeat CPU 0 instructions: 640000001 cycles: 2016198754 heartbeat IPC: 0.269323 cumulative IPC: 0.273623 (Simulation time: 0 hr 28 min 39 sec) 
Heartbeat CPU 0 instructions: 650000000 cycles: 2054462030 heartbeat IPC: 0.261347 cumulative IPC: 0.273389 (Simulation time: 0 hr 29 min 7 sec) 
Heartbeat CPU 0 instructions: 660000000 cycles: 2090630376 heartbeat IPC: 0.276485 cumulative IPC: 0.273444 (Simulation time: 0 hr 29 min 34 sec) 
Heartbeat CPU 0 instructions: 670000000 cycles: 2129180775 heartbeat IPC: 0.259401 cumulative IPC: 0.273184 (Simulation time: 0 hr 30 min 2 sec) 
Heartbeat CPU 0 instructions: 680000002 cycles: 2166237938 heartbeat IPC: 0.269853 cumulative IPC: 0.273126 (Simulation time: 0 hr 30 min 30 sec) 
Heartbeat CPU 0 instructions: 690000000 cycles: 2203607801 heartbeat IPC: 0.267595 cumulative IPC: 0.273031 (Simulation time: 0 hr 30 min 58 sec) 
Heartbeat CPU 0 instructions: 700000000 cycles: 2236934621 heartbeat IPC: 0.300059 cumulative IPC: 0.273441 (Simulation time: 0 hr 31 min 25 sec) 
Heartbeat CPU 0 instructions: 710000001 cycles: 2267734347 heartbeat IPC: 0.324678 cumulative IPC: 0.27415 (Simulation time: 0 hr 31 min 50 sec) 
Heartbeat CPU 0 instructions: 720000001 cycles: 2294708788 heartbeat IPC: 0.370721 cumulative IPC: 0.275307 (Simulation time: 0 hr 32 min 14 sec) 
Heartbeat CPU 0 instructions: 730000000 cycles: 2328184787 heartbeat IPC: 0.298721 cumulative IPC: 0.27565 (Simulation time: 0 hr 32 min 41 sec) 
Heartbeat CPU 0 instructions: 740000001 cycles: 2362337880 heartbeat IPC: 0.292799 cumulative IPC: 0.275903 (Simulation time: 0 hr 33 min 7 sec) 
Heartbeat CPU 0 instructions: 750000000 cycles: 2397333433 heartbeat IPC: 0.285751 cumulative IPC: 0.276049 (Simulation time: 0 hr 33 min 35 sec) 
Heartbeat CPU 0 instructions: 760000002 cycles: 2433254293 heartbeat IPC: 0.27839 cumulative IPC: 0.276084 (Simulation time: 0 hr 34 min 1 sec) 
Heartbeat CPU 0 instructions: 770000000 cycles: 2470649199 heartbeat IPC: 0.267416 cumulative IPC: 0.275951 (Simulation time: 0 hr 34 min 30 sec) 
Heartbeat CPU 0 instructions: 780000002 cycles: 2507196647 heartbeat IPC: 0.273617 cumulative IPC: 0.275916 (Simulation time: 0 hr 34 min 57 sec) 
Heartbeat CPU 0 instructions: 790000003 cycles: 2545295192 heartbeat IPC: 0.262477 cumulative IPC: 0.275711 (Simulation time: 0 hr 35 min 26 sec) 
Heartbeat CPU 0 instructions: 800000002 cycles: 2581076327 heartbeat IPC: 0.279477 cumulative IPC: 0.275765 (Simulation time: 0 hr 35 min 53 sec) 
Heartbeat CPU 0 instructions: 810000002 cycles: 2615336569 heartbeat IPC: 0.291884 cumulative IPC: 0.275979 (Simulation time: 0 hr 36 min 19 sec) 
Heartbeat CPU 0 instructions: 820000000 cycles: 2652538146 heartbeat IPC: 0.268806 cumulative IPC: 0.275877 (Simulation time: 0 hr 36 min 47 sec) 
Heartbeat CPU 0 instructions: 830000003 cycles: 2687880386 heartbeat IPC: 0.282948 cumulative IPC: 0.275971 (Simulation time: 0 hr 37 min 14 sec) 
Heartbeat CPU 0 instructions: 840000000 cycles: 2723907395 heartbeat IPC: 0.277569 cumulative IPC: 0.275993 (Simulation time: 0 hr 37 min 42 sec) 
Heartbeat CPU 0 instructions: 850000000 cycles: 2760036277 heartbeat IPC: 0.276787 cumulative IPC: 0.276003 (Simulation time: 0 hr 38 min 9 sec) 
Heartbeat CPU 0 instructions: 860000003 cycles: 2796567915 heartbeat IPC: 0.273735 cumulative IPC: 0.275973 (Simulation time: 0 hr 38 min 36 sec) 
Heartbeat CPU 0 instructions: 870000002 cycles: 2832884685 heartbeat IPC: 0.275355 cumulative IPC: 0.275965 (Simulation time: 0 hr 39 min 3 sec) 
Heartbeat CPU 0 instructions: 880000000 cycles: 2869911261 heartbeat IPC: 0.270076 cumulative IPC: 0.275888 (Simulation time: 0 hr 39 min 31 sec) 
Heartbeat CPU 0 instructions: 890000000 cycles: 2907675996 heartbeat IPC: 0.264797 cumulative IPC: 0.275742 (Simulation time: 0 hr 39 min 59 sec) 
Heartbeat CPU 0 instructions: 900000001 cycles: 2944346528 heartbeat IPC: 0.272699 cumulative IPC: 0.275703 (Simulation time: 0 hr 40 min 26 sec) 
Heartbeat CPU 0 instructions: 910000000 cycles: 2982502398 heartbeat IPC: 0.262083 cumulative IPC: 0.275527 (Simulation time: 0 hr 40 min 53 sec) 
Heartbeat CPU 0 instructions: 920000003 cycles: 3019603375 heartbeat IPC: 0.269535 cumulative IPC: 0.275452 (Simulation time: 0 hr 41 min 21 sec) 
Heartbeat CPU 0 instructions: 930000000 cycles: 3058738410 heartbeat IPC: 0.255525 cumulative IPC: 0.275193 (Simulation time: 0 hr 41 min 49 sec) 
Heartbeat CPU 0 instructions: 940000003 cycles: 3096349818 heartbeat IPC: 0.265877 cumulative IPC: 0.275079 (Simulation time: 0 hr 42 min 17 sec) 
Heartbeat CPU 0 instructions: 950000003 cycles: 3130975167 heartbeat IPC: 0.288806 cumulative IPC: 0.275233 (Simulation time: 0 hr 42 min 43 sec) 
Heartbeat CPU 0 instructions: 960000001 cycles: 3168752848 heartbeat IPC: 0.264707 cumulative IPC: 0.275105 (Simulation time: 0 hr 43 min 11 sec) 
Heartbeat CPU 0 instructions: 970000003 cycles: 3204646972 heartbeat IPC: 0.278597 cumulative IPC: 0.275145 (Simulation time: 0 hr 43 min 38 sec) 
Heartbeat CPU 0 instructions: 980000002 cycles: 3242175578 heartbeat IPC: 0.266463 cumulative IPC: 0.275043 (Simulation time: 0 hr 44 min 5 sec) 
Heartbeat CPU 0 instructions: 990000000 cycles: 3277456085 heartbeat IPC: 0.283443 cumulative IPC: 0.275135 (Simulation time: 0 hr 44 min 32 sec) 
Heartbeat CPU 0 instructions: 1000000000 cycles: 3316699892 heartbeat IPC: 0.254817 cumulative IPC: 0.274891 (Simulation time: 0 hr 45 min 1 sec) 
Heartbeat CPU 0 instructions: 1010000000 cycles: 3350445747 heartbeat IPC: 0.296333 cumulative IPC: 0.27511 (Simulation time: 0 hr 45 min 27 sec) 
Heartbeat CPU 0 instructions: 1020000002 cycles: 3386830942 heartbeat IPC: 0.274837 cumulative IPC: 0.275107 (Simulation time: 0 hr 45 min 54 sec) 
Heartbeat CPU 0 instructions: 1030000003 cycles: 3425003595 heartbeat IPC: 0.261968 cumulative IPC: 0.274959 (Simulation time: 0 hr 46 min 22 sec) 
Heartbeat CPU 0 instructions: 1040000003 cycles: 3463638067 heartbeat IPC: 0.258836 cumulative IPC: 0.274777 (Simulation time: 0 hr 46 min 50 sec) 
Heartbeat CPU 0 instructions: 1050000000 cycles: 3500941413 heartbeat IPC: 0.268072 cumulative IPC: 0.274704 (Simulation time: 0 hr 47 min 17 sec) 
Heartbeat CPU 0 instructions: 1060000002 cycles: 3536453863 heartbeat IPC: 0.281591 cumulative IPC: 0.274774 (Simulation time: 0 hr 47 min 45 sec) 
Heartbeat CPU 0 instructions: 1070000003 cycles: 3572709854 heartbeat IPC: 0.275817 cumulative IPC: 0.274785 (Simulation time: 0 hr 48 min 13 sec) 
Heartbeat CPU 0 instructions: 1080000001 cycles: 3606294168 heartbeat IPC: 0.297758 cumulative IPC: 0.275002 (Simulation time: 0 hr 48 min 40 sec) 
Heartbeat CPU 0 instructions: 1090000000 cycles: 3638590126 heartbeat IPC: 0.309636 cumulative IPC: 0.275313 (Simulation time: 0 hr 49 min 6 sec) 
Heartbeat CPU 0 instructions: 1100000000 cycles: 3671920568 heartbeat IPC: 0.300026 cumulative IPC: 0.27554 (Simulation time: 0 hr 49 min 33 sec) 
Finished CPU 0 instructions: 1000000002 cycles: 3629241951 cumulative IPC: 0.27554 (Simulation time: 0 hr 49 min 33 sec) 

ChampSim completed all CPUs

Region of Interest Statistics

CPU 0 cumulative IPC: 0.27554 instructions: 1000000002 cycles: 3629241951
L1D TOTAL     ACCESS:  343748668  HIT:  318454066  MISS:   25294602
L1D LOAD      ACCESS:  190917431  HIT:  168799335  MISS:   22118096
L1D RFO       ACCESS:  152831237  HIT:  149654731  MISS:    3176506
L1D PREFETCH  ACCESS:          0  HIT:          0  MISS:          0
L1D WRITEBACK ACCESS:          0  HIT:          0  MISS:          0
L1D PREFETCH  REQUESTED:          0  ISSUED:          0  USEFUL:          0  USELESS:          0
L1D AVERAGE MISS LATENCY: 161.116 cycles
L1I TOTAL     ACCESS:  186015743  HIT:  185970052  MISS:      45691
L1I LOAD      ACCESS:  186015743  HIT:  185970052  MISS:      45691
L1I RFO       ACCESS:          0  HIT:          0  MISS:          0
L1I PREFETCH  ACCESS:          0  HIT:          0  MISS:          0
L1I WRITEBACK ACCESS:          0  HIT:          0  MISS:          0
L1I PREFETCH  REQUESTED:          0  ISSUED:          0  USEFUL:          0  USELESS:          0
L1I AVERAGE MISS LATENCY: 153.186 cycles
L2C TOTAL     ACCESS:   36177076  HIT:   14362999  MISS:   21814077
L2C LOAD      ACCESS:   22162715  HIT:    3386515  MISS:   18776200
L2C RFO       ACCESS:    3176468  HIT:     180331  MISS:    2996137
L2C PREFETCH  ACCESS:          0  HIT:          0  MISS:          0
L2C WRITEBACK ACCESS:   10837893  HIT:   10796153  MISS:      41740
L2C PREFETCH  REQUESTED:          0  ISSUED:          0  USEFUL:          0  USELESS:          0
L2C AVERAGE MISS LATENCY: 170.732 cycles
LLC TOTAL     ACCESS:   31205929  HIT:   15283878  MISS:   15922051
LLC LOAD      ACCESS:   18776143  HIT:    5141882  MISS:   13634261
LLC RFO       ACCESS:    2996130  HIT:     779306  MISS:    2216824
LLC PREFETCH  ACCESS:          0  HIT:          0  MISS:          0
LLC WRITEBACK ACCESS:    9433656  HIT:    9362690  MISS:      70966
LLC PREFETCH  REQUESTED:          0  ISSUED:          0  USEFUL:          0  USELESS:          0
LLC AVERAGE MISS LATENCY: 175.041 cycles
Major fault: 0 Minor fault: 36042

DRAM Statistics
 CHANNEL 0
 RQ ROW_BUFFER_HIT:    1921983  ROW_BUFFER_MISS:   13929067
 DBUS_CONGESTED:    4251423
 WQ ROW_BUFFER_HIT:    1929091  ROW_BUFFER_MISS:    4476713  FULL:          0

 AVG_CONGESTED_CYCLE: 6

CPU 0 Branch Prediction Accuracy: 94.1527% MPKI: 14.1178 Average ROB Occupancy at Mispredict: 43.8539

Branch types
NOT_BRANCH: 758557651 75.8558%
BRANCH_DIRECT_JUMP: 19502182 1.95022%
BRANCH_INDIRECT: 2970500 0.29705%
BRANCH_CONDITIONAL: 159215241 15.9215%
BRANCH_DIRECT_CALL: 25720589 2.57206%
BRANCH_INDIRECT_CALL: 4156438 0.415644%
BRANCH_RETURN: 29877023 2.9877%
BRANCH_OTHER: 0 0%

