
*** ChampSim Multicore Out-of-Order Simulator ***

Warmup Instructions: 100000000
Simulation Instructions: 1000000000
Number of CPUs: 1
LLC sets: 2048
LLC ways: 16
Off-chip DRAM Size: 4096 MB Channels: 1 Width: 64-bit Data Rate: 3200 MT/s

CPU 0 runs /scratch/user/kevin.weston/dpc3-traces/471.champsimtrace.xz
CPU 0 Bimodal branch predictor
Initialize DRRIP state
Assign rand_sets[0]: 454  LLC: 2048
rand_sets[0]: 454
Assign rand_sets[1]: 1662  LLC: 2048
rand_sets[1]: 1662
Assign rand_sets[2]: 1921  LLC: 2048
rand_sets[2]: 1921
Assign rand_sets[3]: 1131  LLC: 2048
rand_sets[3]: 1131
Assign rand_sets[4]: 331  LLC: 2048
rand_sets[4]: 331
Assign rand_sets[5]: 1531  LLC: 2048
rand_sets[5]: 1531
Assign rand_sets[6]: 482  LLC: 2048
rand_sets[6]: 482
Assign rand_sets[7]: 1275  LLC: 2048
rand_sets[7]: 1275
Assign rand_sets[8]: 1876  LLC: 2048
rand_sets[8]: 1876
Assign rand_sets[9]: 2038  LLC: 2048
rand_sets[9]: 2038
Assign rand_sets[10]: 701  LLC: 2048
rand_sets[10]: 701
Assign rand_sets[11]: 479  LLC: 2048
rand_sets[11]: 479
Assign rand_sets[12]: 892  LLC: 2048
rand_sets[12]: 892
Assign rand_sets[13]: 1820  LLC: 2048
rand_sets[13]: 1820
Assign rand_sets[14]: 1505  LLC: 2048
rand_sets[14]: 1505
Assign rand_sets[15]: 1159  LLC: 2048
rand_sets[15]: 1159
Assign rand_sets[16]: 513  LLC: 2048
rand_sets[16]: 513
Assign rand_sets[17]: 703  LLC: 2048
rand_sets[17]: 703
Assign rand_sets[18]: 561  LLC: 2048
rand_sets[18]: 561
Assign rand_sets[19]: 990  LLC: 2048
rand_sets[19]: 990
Assign rand_sets[20]: 342  LLC: 2048
rand_sets[20]: 342
Assign rand_sets[21]: 882  LLC: 2048
rand_sets[21]: 882
Assign rand_sets[22]: 15  LLC: 2048
rand_sets[22]: 15
Assign rand_sets[23]: 71  LLC: 2048
rand_sets[23]: 71
Assign rand_sets[24]: 1127  LLC: 2048
rand_sets[24]: 1127
Assign rand_sets[25]: 1382  LLC: 2048
rand_sets[25]: 1382
Assign rand_sets[26]: 647  LLC: 2048
rand_sets[26]: 647
Assign rand_sets[27]: 857  LLC: 2048
rand_sets[27]: 857
Assign rand_sets[28]: 1450  LLC: 2048
rand_sets[28]: 1450
Assign rand_sets[29]: 1160  LLC: 2048
rand_sets[29]: 1160
Assign rand_sets[30]: 1852  LLC: 2048
rand_sets[30]: 1852
Assign rand_sets[31]: 1881  LLC: 2048
rand_sets[31]: 1881
Assign rand_sets[32]: 1770  LLC: 2048
rand_sets[32]: 1770
Assign rand_sets[33]: 1622  LLC: 2048
rand_sets[33]: 1622
Assign rand_sets[34]: 275  LLC: 2048
rand_sets[34]: 275
Assign rand_sets[35]: 635  LLC: 2048
rand_sets[35]: 635
Assign rand_sets[36]: 466  LLC: 2048
rand_sets[36]: 466
Assign rand_sets[37]: 1413  LLC: 2048
rand_sets[37]: 1413
Assign rand_sets[38]: 417  LLC: 2048
rand_sets[38]: 417
Assign rand_sets[39]: 472  LLC: 2048
rand_sets[39]: 472
Assign rand_sets[40]: 1340  LLC: 2048
rand_sets[40]: 1340
Assign rand_sets[41]: 852  LLC: 2048
rand_sets[41]: 852
Assign rand_sets[42]: 1365  LLC: 2048
rand_sets[42]: 1365
Assign rand_sets[43]: 47  LLC: 2048
rand_sets[43]: 47
Assign rand_sets[44]: 823  LLC: 2048
rand_sets[44]: 823
Assign rand_sets[45]: 686  LLC: 2048
rand_sets[45]: 686
Assign rand_sets[46]: 1637  LLC: 2048
rand_sets[46]: 1637
Assign rand_sets[47]: 1115  LLC: 2048
rand_sets[47]: 1115
Assign rand_sets[48]: 986  LLC: 2048
rand_sets[48]: 986
Assign rand_sets[49]: 258  LLC: 2048
rand_sets[49]: 258
Assign rand_sets[50]: 633  LLC: 2048
rand_sets[50]: 633
Assign rand_sets[51]: 920  LLC: 2048
rand_sets[51]: 920
Assign rand_sets[52]: 204  LLC: 2048
rand_sets[52]: 204
Assign rand_sets[53]: 227  LLC: 2048
rand_sets[53]: 227
Assign rand_sets[54]: 1818  LLC: 2048
rand_sets[54]: 1818
Assign rand_sets[55]: 886  LLC: 2048
rand_sets[55]: 886
Assign rand_sets[56]: 1422  LLC: 2048
rand_sets[56]: 1422
Assign rand_sets[57]: 607  LLC: 2048
rand_sets[57]: 607
Assign rand_sets[58]: 217  LLC: 2048
rand_sets[58]: 217
Assign rand_sets[59]: 1945  LLC: 2048
rand_sets[59]: 1945
Assign rand_sets[60]: 143  LLC: 2048
rand_sets[60]: 143
Assign rand_sets[61]: 1311  LLC: 2048
rand_sets[61]: 1311
Assign rand_sets[62]: 319  LLC: 2048
rand_sets[62]: 319
Assign rand_sets[63]: 1846  LLC: 2048
rand_sets[63]: 1846
Heartbeat CPU 0 instructions: 10000003 cycles: 4307561 heartbeat IPC: 2.3215 cumulative IPC: 2.3215 (Simulation time: 0 hr 0 min 27 sec) 
Heartbeat CPU 0 instructions: 20000003 cycles: 8528261 heartbeat IPC: 2.36928 cumulative IPC: 2.34514 (Simulation time: 0 hr 0 min 54 sec) 
Heartbeat CPU 0 instructions: 30000000 cycles: 12815427 heartbeat IPC: 2.33254 cumulative IPC: 2.34093 (Simulation time: 0 hr 1 min 21 sec) 
Heartbeat CPU 0 instructions: 40000002 cycles: 17069719 heartbeat IPC: 2.35057 cumulative IPC: 2.34333 (Simulation time: 0 hr 1 min 47 sec) 
Heartbeat CPU 0 instructions: 50000003 cycles: 21329485 heartbeat IPC: 2.34755 cumulative IPC: 2.34417 (Simulation time: 0 hr 2 min 14 sec) 
Heartbeat CPU 0 instructions: 60000003 cycles: 25609432 heartbeat IPC: 2.33648 cumulative IPC: 2.34289 (Simulation time: 0 hr 2 min 41 sec) 
Heartbeat CPU 0 instructions: 70000000 cycles: 29857314 heartbeat IPC: 2.35411 cumulative IPC: 2.34448 (Simulation time: 0 hr 3 min 8 sec) 
Heartbeat CPU 0 instructions: 80000003 cycles: 34130101 heartbeat IPC: 2.34039 cumulative IPC: 2.34397 (Simulation time: 0 hr 3 min 35 sec) 
Heartbeat CPU 0 instructions: 90000003 cycles: 38412654 heartbeat IPC: 2.33506 cumulative IPC: 2.34298 (Simulation time: 0 hr 4 min 2 sec) 
Heartbeat CPU 0 instructions: 100000000 cycles: 42676170 heartbeat IPC: 2.34548 cumulative IPC: 2.34323 (Simulation time: 0 hr 4 min 29 sec) 

Warmup complete CPU 0 instructions: 100000004 cycles: 42676171 (Simulation time: 0 hr 4 min 29 sec) 

Heartbeat CPU 0 instructions: 110000000 cycles: 80367450 heartbeat IPC: 0.265313 cumulative IPC: 0.265313 (Simulation time: 0 hr 4 min 57 sec) 
Heartbeat CPU 0 instructions: 120000000 cycles: 118370804 heartbeat IPC: 0.263135 cumulative IPC: 0.264219 (Simulation time: 0 hr 5 min 26 sec) 
Heartbeat CPU 0 instructions: 130000000 cycles: 154361597 heartbeat IPC: 0.277849 cumulative IPC: 0.268612 (Simulation time: 0 hr 5 min 54 sec) 
Heartbeat CPU 0 instructions: 140000001 cycles: 193332712 heartbeat IPC: 0.2566 cumulative IPC: 0.265505 (Simulation time: 0 hr 6 min 22 sec) 
Heartbeat CPU 0 instructions: 150000001 cycles: 229318831 heartbeat IPC: 0.277885 cumulative IPC: 0.267892 (Simulation time: 0 hr 6 min 50 sec) 
Heartbeat CPU 0 instructions: 160000000 cycles: 265593301 heartbeat IPC: 0.275676 cumulative IPC: 0.269158 (Simulation time: 0 hr 7 min 18 sec) 
Heartbeat CPU 0 instructions: 170000000 cycles: 304913197 heartbeat IPC: 0.254324 cumulative IPC: 0.266934 (Simulation time: 0 hr 7 min 47 sec) 
Heartbeat CPU 0 instructions: 180000000 cycles: 342347156 heartbeat IPC: 0.267137 cumulative IPC: 0.266959 (Simulation time: 0 hr 8 min 15 sec) 
Heartbeat CPU 0 instructions: 190000003 cycles: 379164713 heartbeat IPC: 0.27161 cumulative IPC: 0.267468 (Simulation time: 0 hr 8 min 43 sec) 
Heartbeat CPU 0 instructions: 200000000 cycles: 416998305 heartbeat IPC: 0.264315 cumulative IPC: 0.26715 (Simulation time: 0 hr 9 min 12 sec) 
Heartbeat CPU 0 instructions: 210000000 cycles: 456977666 heartbeat IPC: 0.250129 cumulative IPC: 0.265507 (Simulation time: 0 hr 9 min 41 sec) 
Heartbeat CPU 0 instructions: 220000000 cycles: 496661869 heartbeat IPC: 0.251989 cumulative IPC: 0.264325 (Simulation time: 0 hr 10 min 10 sec) 
Heartbeat CPU 0 instructions: 230000002 cycles: 538278092 heartbeat IPC: 0.240291 cumulative IPC: 0.262307 (Simulation time: 0 hr 10 min 41 sec) 
Heartbeat CPU 0 instructions: 240000002 cycles: 576625348 heartbeat IPC: 0.260775 cumulative IPC: 0.262197 (Simulation time: 0 hr 11 min 10 sec) 
Heartbeat CPU 0 instructions: 250000000 cycles: 615260787 heartbeat IPC: 0.25883 cumulative IPC: 0.26197 (Simulation time: 0 hr 11 min 39 sec) 
Heartbeat CPU 0 instructions: 260000003 cycles: 652546580 heartbeat IPC: 0.268199 cumulative IPC: 0.262351 (Simulation time: 0 hr 12 min 8 sec) 
Heartbeat CPU 0 instructions: 270000003 cycles: 691675460 heartbeat IPC: 0.255566 cumulative IPC: 0.261942 (Simulation time: 0 hr 12 min 37 sec) 
Heartbeat CPU 0 instructions: 280000000 cycles: 729064419 heartbeat IPC: 0.267459 cumulative IPC: 0.262242 (Simulation time: 0 hr 13 min 5 sec) 
Heartbeat CPU 0 instructions: 290000000 cycles: 764274538 heartbeat IPC: 0.284009 cumulative IPC: 0.263304 (Simulation time: 0 hr 13 min 33 sec) 
Heartbeat CPU 0 instructions: 300000002 cycles: 801815660 heartbeat IPC: 0.266375 cumulative IPC: 0.263456 (Simulation time: 0 hr 14 min 3 sec) 
Heartbeat CPU 0 instructions: 310000002 cycles: 838042783 heartbeat IPC: 0.276036 cumulative IPC: 0.264029 (Simulation time: 0 hr 14 min 32 sec) 
Heartbeat CPU 0 instructions: 320000000 cycles: 873235058 heartbeat IPC: 0.284153 cumulative IPC: 0.264882 (Simulation time: 0 hr 15 min 0 sec) 
Heartbeat CPU 0 instructions: 330000000 cycles: 909272604 heartbeat IPC: 0.277488 cumulative IPC: 0.265406 (Simulation time: 0 hr 15 min 28 sec) 
Heartbeat CPU 0 instructions: 340000002 cycles: 945138747 heartbeat IPC: 0.278815 cumulative IPC: 0.265939 (Simulation time: 0 hr 15 min 57 sec) 
Heartbeat CPU 0 instructions: 350000002 cycles: 980076875 heartbeat IPC: 0.28622 cumulative IPC: 0.266695 (Simulation time: 0 hr 16 min 25 sec) 
Heartbeat CPU 0 instructions: 360000003 cycles: 1011295364 heartbeat IPC: 0.320323 cumulative IPC: 0.268423 (Simulation time: 0 hr 16 min 52 sec) 
Heartbeat CPU 0 instructions: 370000001 cycles: 1045887282 heartbeat IPC: 0.289085 cumulative IPC: 0.269136 (Simulation time: 0 hr 17 min 20 sec) 
Heartbeat CPU 0 instructions: 380000000 cycles: 1082971629 heartbeat IPC: 0.269656 cumulative IPC: 0.269154 (Simulation time: 0 hr 17 min 48 sec) 
Heartbeat CPU 0 instructions: 390000000 cycles: 1118688803 heartbeat IPC: 0.279977 cumulative IPC: 0.269514 (Simulation time: 0 hr 18 min 16 sec) 
Heartbeat CPU 0 instructions: 400000002 cycles: 1154168921 heartbeat IPC: 0.281848 cumulative IPC: 0.269907 (Simulation time: 0 hr 18 min 44 sec) 
Heartbeat CPU 0 instructions: 410000002 cycles: 1191453551 heartbeat IPC: 0.268207 cumulative IPC: 0.269852 (Simulation time: 0 hr 19 min 13 sec) 
Heartbeat CPU 0 instructions: 420000000 cycles: 1226637524 heartbeat IPC: 0.28422 cumulative IPC: 0.270279 (Simulation time: 0 hr 19 min 41 sec) 
Heartbeat CPU 0 instructions: 430000000 cycles: 1262561006 heartbeat IPC: 0.278369 cumulative IPC: 0.270517 (Simulation time: 0 hr 20 min 9 sec) 
Heartbeat CPU 0 instructions: 440000000 cycles: 1299039816 heartbeat IPC: 0.274132 cumulative IPC: 0.270622 (Simulation time: 0 hr 20 min 38 sec) 
Heartbeat CPU 0 instructions: 450000001 cycles: 1334536009 heartbeat IPC: 0.28172 cumulative IPC: 0.270927 (Simulation time: 0 hr 21 min 6 sec) 
Heartbeat CPU 0 instructions: 460000000 cycles: 1371931113 heartbeat IPC: 0.267415 cumulative IPC: 0.270828 (Simulation time: 0 hr 21 min 35 sec) 
Heartbeat CPU 0 instructions: 470000000 cycles: 1409050444 heartbeat IPC: 0.269401 cumulative IPC: 0.27079 (Simulation time: 0 hr 22 min 4 sec) 
Heartbeat CPU 0 instructions: 480000003 cycles: 1444035161 heartbeat IPC: 0.285839 cumulative IPC: 0.271165 (Simulation time: 0 hr 22 min 32 sec) 
Heartbeat CPU 0 instructions: 490000001 cycles: 1480466244 heartbeat IPC: 0.274491 cumulative IPC: 0.27125 (Simulation time: 0 hr 23 min 0 sec) 
Heartbeat CPU 0 instructions: 500000003 cycles: 1515287367 heartbeat IPC: 0.287182 cumulative IPC: 0.271626 (Simulation time: 0 hr 23 min 28 sec) 
Heartbeat CPU 0 instructions: 510000001 cycles: 1554272322 heartbeat IPC: 0.256509 cumulative IPC: 0.271236 (Simulation time: 0 hr 23 min 58 sec) 
Heartbeat CPU 0 instructions: 520000002 cycles: 1591285153 heartbeat IPC: 0.270177 cumulative IPC: 0.271211 (Simulation time: 0 hr 24 min 26 sec) 
Heartbeat CPU 0 instructions: 530000003 cycles: 1630176141 heartbeat IPC: 0.257129 cumulative IPC: 0.270866 (Simulation time: 0 hr 24 min 56 sec) 
Heartbeat CPU 0 instructions: 540000000 cycles: 1666299237 heartbeat IPC: 0.276831 cumulative IPC: 0.270999 (Simulation time: 0 hr 25 min 23 sec) 
Heartbeat CPU 0 instructions: 550000000 cycles: 1705243698 heartbeat IPC: 0.256776 cumulative IPC: 0.270666 (Simulation time: 0 hr 25 min 53 sec) 
Heartbeat CPU 0 instructions: 560000002 cycles: 1741505811 heartbeat IPC: 0.27577 cumulative IPC: 0.270775 (Simulation time: 0 hr 26 min 20 sec) 
Heartbeat CPU 0 instructions: 570000000 cycles: 1778963098 heartbeat IPC: 0.266971 cumulative IPC: 0.270693 (Simulation time: 0 hr 26 min 49 sec) 
Heartbeat CPU 0 instructions: 580000002 cycles: 1817474348 heartbeat IPC: 0.259664 cumulative IPC: 0.270453 (Simulation time: 0 hr 27 min 18 sec) 
Heartbeat CPU 0 instructions: 590000001 cycles: 1854749715 heartbeat IPC: 0.268274 cumulative IPC: 0.270408 (Simulation time: 0 hr 27 min 46 sec) 
Heartbeat CPU 0 instructions: 600000000 cycles: 1892380419 heartbeat IPC: 0.26574 cumulative IPC: 0.270313 (Simulation time: 0 hr 28 min 15 sec) 
Heartbeat CPU 0 instructions: 610000000 cycles: 1927952503 heartbeat IPC: 0.281119 cumulative IPC: 0.270517 (Simulation time: 0 hr 28 min 43 sec) 
Heartbeat CPU 0 instructions: 620000000 cycles: 1966831701 heartbeat IPC: 0.257207 cumulative IPC: 0.270248 (Simulation time: 0 hr 29 min 12 sec) 
Heartbeat CPU 0 instructions: 630000002 cycles: 2004379941 heartbeat IPC: 0.266324 cumulative IPC: 0.270173 (Simulation time: 0 hr 29 min 41 sec) 
Heartbeat CPU 0 instructions: 640000001 cycles: 2041927171 heartbeat IPC: 0.266331 cumulative IPC: 0.270101 (Simulation time: 0 hr 30 min 10 sec) 
Heartbeat CPU 0 instructions: 650000000 cycles: 2080899233 heartbeat IPC: 0.256594 cumulative IPC: 0.269843 (Simulation time: 0 hr 30 min 39 sec) 
Heartbeat CPU 0 instructions: 660000000 cycles: 2117338625 heartbeat IPC: 0.274428 cumulative IPC: 0.269923 (Simulation time: 0 hr 31 min 7 sec) 
Heartbeat CPU 0 instructions: 670000000 cycles: 2156580028 heartbeat IPC: 0.254833 cumulative IPC: 0.269643 (Simulation time: 0 hr 31 min 36 sec) 
Heartbeat CPU 0 instructions: 680000002 cycles: 2193731727 heartbeat IPC: 0.269167 cumulative IPC: 0.269635 (Simulation time: 0 hr 32 min 4 sec) 
Heartbeat CPU 0 instructions: 690000000 cycles: 2231489831 heartbeat IPC: 0.264844 cumulative IPC: 0.269552 (Simulation time: 0 hr 32 min 34 sec) 
Heartbeat CPU 0 instructions: 700000000 cycles: 2264733786 heartbeat IPC: 0.300807 cumulative IPC: 0.27002 (Simulation time: 0 hr 33 min 1 sec) 
Heartbeat CPU 0 instructions: 710000001 cycles: 2295044051 heartbeat IPC: 0.329921 cumulative IPC: 0.270826 (Simulation time: 0 hr 33 min 27 sec) 
Heartbeat CPU 0 instructions: 720000001 cycles: 2321917874 heartbeat IPC: 0.372109 cumulative IPC: 0.27202 (Simulation time: 0 hr 33 min 52 sec) 
Heartbeat CPU 0 instructions: 730000000 cycles: 2355700348 heartbeat IPC: 0.296011 cumulative IPC: 0.272371 (Simulation time: 0 hr 34 min 20 sec) 
Heartbeat CPU 0 instructions: 740000000 cycles: 2389760370 heartbeat IPC: 0.293599 cumulative IPC: 0.272679 (Simulation time: 0 hr 34 min 47 sec) 
Heartbeat CPU 0 instructions: 750000000 cycles: 2425363134 heartbeat IPC: 0.280877 cumulative IPC: 0.272801 (Simulation time: 0 hr 35 min 15 sec) 
Heartbeat CPU 0 instructions: 760000002 cycles: 2462202957 heartbeat IPC: 0.271445 cumulative IPC: 0.272781 (Simulation time: 0 hr 35 min 43 sec) 
Heartbeat CPU 0 instructions: 770000000 cycles: 2499937339 heartbeat IPC: 0.26501 cumulative IPC: 0.272661 (Simulation time: 0 hr 36 min 13 sec) 
Heartbeat CPU 0 instructions: 780000002 cycles: 2536852757 heartbeat IPC: 0.27089 cumulative IPC: 0.272635 (Simulation time: 0 hr 36 min 41 sec) 
Heartbeat CPU 0 instructions: 790000003 cycles: 2575254417 heartbeat IPC: 0.260405 cumulative IPC: 0.27245 (Simulation time: 0 hr 37 min 11 sec) 
Heartbeat CPU 0 instructions: 800000002 cycles: 2611430999 heartbeat IPC: 0.276422 cumulative IPC: 0.272506 (Simulation time: 0 hr 37 min 39 sec) 
Heartbeat CPU 0 instructions: 810000002 cycles: 2645961350 heartbeat IPC: 0.2896 cumulative IPC: 0.272732 (Simulation time: 0 hr 38 min 6 sec) 
Heartbeat CPU 0 instructions: 820000000 cycles: 2684180460 heartbeat IPC: 0.261649 cumulative IPC: 0.272572 (Simulation time: 0 hr 38 min 35 sec) 
Heartbeat CPU 0 instructions: 830000003 cycles: 2719806306 heartbeat IPC: 0.280695 cumulative IPC: 0.27268 (Simulation time: 0 hr 39 min 3 sec) 
Heartbeat CPU 0 instructions: 840000000 cycles: 2756253531 heartbeat IPC: 0.274369 cumulative IPC: 0.272703 (Simulation time: 0 hr 39 min 32 sec) 
Heartbeat CPU 0 instructions: 850000000 cycles: 2792618473 heartbeat IPC: 0.27499 cumulative IPC: 0.272733 (Simulation time: 0 hr 40 min 0 sec) 
Heartbeat CPU 0 instructions: 860000003 cycles: 2830305745 heartbeat IPC: 0.265342 cumulative IPC: 0.272633 (Simulation time: 0 hr 40 min 28 sec) 
Heartbeat CPU 0 instructions: 870000002 cycles: 2867067116 heartbeat IPC: 0.272025 cumulative IPC: 0.272625 (Simulation time: 0 hr 40 min 56 sec) 
Heartbeat CPU 0 instructions: 880000000 cycles: 2904970510 heartbeat IPC: 0.263829 cumulative IPC: 0.272509 (Simulation time: 0 hr 41 min 25 sec) 
Heartbeat CPU 0 instructions: 890000000 cycles: 2943012853 heartbeat IPC: 0.262865 cumulative IPC: 0.272382 (Simulation time: 0 hr 41 min 53 sec) 
Heartbeat CPU 0 instructions: 900000001 cycles: 2980220350 heartbeat IPC: 0.268763 cumulative IPC: 0.272336 (Simulation time: 0 hr 42 min 22 sec) 
Heartbeat CPU 0 instructions: 910000000 cycles: 3018821303 heartbeat IPC: 0.259061 cumulative IPC: 0.272164 (Simulation time: 0 hr 42 min 51 sec) 
Heartbeat CPU 0 instructions: 920000003 cycles: 3056431697 heartbeat IPC: 0.265884 cumulative IPC: 0.272086 (Simulation time: 0 hr 43 min 19 sec) 
Heartbeat CPU 0 instructions: 930000000 cycles: 3095969971 heartbeat IPC: 0.252919 cumulative IPC: 0.271838 (Simulation time: 0 hr 43 min 49 sec) 
Heartbeat CPU 0 instructions: 940000003 cycles: 3134110491 heartbeat IPC: 0.262188 cumulative IPC: 0.271719 (Simulation time: 0 hr 44 min 17 sec) 
Heartbeat CPU 0 instructions: 950000003 cycles: 3169031306 heartbeat IPC: 0.286362 cumulative IPC: 0.271882 (Simulation time: 0 hr 44 min 44 sec) 
Heartbeat CPU 0 instructions: 960000001 cycles: 3206995507 heartbeat IPC: 0.263406 cumulative IPC: 0.27178 (Simulation time: 0 hr 45 min 13 sec) 
Heartbeat CPU 0 instructions: 970000003 cycles: 3243259528 heartbeat IPC: 0.275755 cumulative IPC: 0.271825 (Simulation time: 0 hr 45 min 41 sec) 
Heartbeat CPU 0 instructions: 980000002 cycles: 3281716992 heartbeat IPC: 0.260028 cumulative IPC: 0.271685 (Simulation time: 0 hr 46 min 10 sec) 
Heartbeat CPU 0 instructions: 990000000 cycles: 3317449559 heartbeat IPC: 0.279857 cumulative IPC: 0.271775 (Simulation time: 0 hr 46 min 37 sec) 
Heartbeat CPU 0 instructions: 1000000000 cycles: 3357075698 heartbeat IPC: 0.252359 cumulative IPC: 0.271542 (Simulation time: 0 hr 47 min 7 sec) 
Heartbeat CPU 0 instructions: 1010000000 cycles: 3391267285 heartbeat IPC: 0.29247 cumulative IPC: 0.271756 (Simulation time: 0 hr 47 min 34 sec) 
Heartbeat CPU 0 instructions: 1020000002 cycles: 3428883804 heartbeat IPC: 0.265841 cumulative IPC: 0.27169 (Simulation time: 0 hr 48 min 2 sec) 
Heartbeat CPU 0 instructions: 1030000001 cycles: 3467502159 heartbeat IPC: 0.258944 cumulative IPC: 0.271547 (Simulation time: 0 hr 48 min 31 sec) 
Heartbeat CPU 0 instructions: 1040000003 cycles: 3506269041 heartbeat IPC: 0.257952 cumulative IPC: 0.271394 (Simulation time: 0 hr 49 min 1 sec) 
Heartbeat CPU 0 instructions: 1050000000 cycles: 3543966245 heartbeat IPC: 0.265272 cumulative IPC: 0.271329 (Simulation time: 0 hr 49 min 29 sec) 
Heartbeat CPU 0 instructions: 1060000002 cycles: 3579840451 heartbeat IPC: 0.278752 cumulative IPC: 0.271404 (Simulation time: 0 hr 49 min 58 sec) 
Heartbeat CPU 0 instructions: 1070000003 cycles: 3616362029 heartbeat IPC: 0.273811 cumulative IPC: 0.271428 (Simulation time: 0 hr 50 min 27 sec) 
Heartbeat CPU 0 instructions: 1080000002 cycles: 3649998040 heartbeat IPC: 0.2973 cumulative IPC: 0.27167 (Simulation time: 0 hr 50 min 54 sec) 
Heartbeat CPU 0 instructions: 1090000000 cycles: 3682263090 heartbeat IPC: 0.309933 cumulative IPC: 0.272009 (Simulation time: 0 hr 51 min 21 sec) 
Heartbeat CPU 0 instructions: 1100000000 cycles: 3715470102 heartbeat IPC: 0.301141 cumulative IPC: 0.272272 (Simulation time: 0 hr 51 min 49 sec) 
Finished CPU 0 instructions: 1000000002 cycles: 3672793946 cumulative IPC: 0.272272 (Simulation time: 0 hr 51 min 49 sec) 

ChampSim completed all CPUs

Region of Interest Statistics

CPU 0 cumulative IPC: 0.272272 instructions: 1000000002 cycles: 3672793946
L1D TOTAL     ACCESS:  343535468  HIT:  318240863  MISS:   25294605
L1D LOAD      ACCESS:  190756932  HIT:  168638866  MISS:   22118066
L1D RFO       ACCESS:  152778536  HIT:  149601997  MISS:    3176539
L1D PREFETCH  ACCESS:          0  HIT:          0  MISS:          0
L1D WRITEBACK ACCESS:          0  HIT:          0  MISS:          0
L1D PREFETCH  REQUESTED:          0  ISSUED:          0  USEFUL:          0  USELESS:          0
L1D AVERAGE MISS LATENCY: 165.493 cycles
L1I TOTAL     ACCESS:  186031240  HIT:  185985549  MISS:      45691
L1I LOAD      ACCESS:  186031240  HIT:  185985549  MISS:      45691
L1I RFO       ACCESS:          0  HIT:          0  MISS:          0
L1I PREFETCH  ACCESS:          0  HIT:          0  MISS:          0
L1I WRITEBACK ACCESS:          0  HIT:          0  MISS:          0
L1I PREFETCH  REQUESTED:          0  ISSUED:          0  USEFUL:          0  USELESS:          0
L1I AVERAGE MISS LATENCY: 142.09 cycles
L2C TOTAL     ACCESS:   36176927  HIT:   14369240  MISS:   21807687
L2C LOAD      ACCESS:   22162687  HIT:    3391142  MISS:   18771545
L2C RFO       ACCESS:    3176502  HIT:     181125  MISS:    2995377
L2C PREFETCH  ACCESS:          0  HIT:          0  MISS:          0
L2C WRITEBACK ACCESS:   10837738  HIT:   10796973  MISS:      40765
L2C PREFETCH  REQUESTED:          0  ISSUED:          0  USEFUL:          0  USELESS:          0
L2C AVERAGE MISS LATENCY: 175.894 cycles
LLC TOTAL     ACCESS:   31194727  HIT:   14787868  MISS:   16406859
LLC LOAD      ACCESS:   18771490  HIT:    4878408  MISS:   13893082
LLC RFO       ACCESS:    2995371  HIT:     569448  MISS:    2425923
LLC PREFETCH  ACCESS:          0  HIT:          0  MISS:          0
LLC WRITEBACK ACCESS:    9427866  HIT:    9340012  MISS:      87854
LLC PREFETCH  REQUESTED:          0  ISSUED:          0  USEFUL:          0  USELESS:          0
LLC AVERAGE MISS LATENCY: 176.644 cycles
Major fault: 0 Minor fault: 36042

DRAM Statistics
 CHANNEL 0
 RQ ROW_BUFFER_HIT:    1744479  ROW_BUFFER_MISS:   14574472
 DBUS_CONGESTED:    4606264
 WQ ROW_BUFFER_HIT:    2094692  ROW_BUFFER_MISS:    5033712  FULL:          0

 AVG_CONGESTED_CYCLE: 6

CPU 0 Branch Prediction Accuracy: 94.1527% MPKI: 14.1178 Average ROB Occupancy at Mispredict: 43.9898

Branch types
NOT_BRANCH: 758557651 75.8558%
BRANCH_DIRECT_JUMP: 19502182 1.95022%
BRANCH_INDIRECT: 2970500 0.29705%
BRANCH_CONDITIONAL: 159215241 15.9215%
BRANCH_DIRECT_CALL: 25720589 2.57206%
BRANCH_INDIRECT_CALL: 4156438 0.415644%
BRANCH_RETURN: 29877023 2.9877%
BRANCH_OTHER: 0 0%

