
*** ChampSim Multicore Out-of-Order Simulator ***

Warmup Instructions: 100000000
Simulation Instructions: 1000000000
Number of CPUs: 1
LLC sets: 2048
LLC ways: 16
Off-chip DRAM Size: 4096 MB Channels: 1 Width: 64-bit Data Rate: 3200 MT/s

CPU 0 runs /scratch/user/kevin.weston/dpc3-traces/471.champsimtrace.xz
CPU 0 Bimodal branch predictor
Per-line RRPV Initialized
PRRIP State Initialized
Assign SAMPLER_SET[0]: 454  LLC: 2048
SAMPLER_SET[0]: 454
Assign SAMPLER_SET[1]: 1662  LLC: 2048
SAMPLER_SET[1]: 1662
Assign SAMPLER_SET[2]: 1921  LLC: 2048
SAMPLER_SET[2]: 1921
Assign SAMPLER_SET[3]: 1131  LLC: 2048
SAMPLER_SET[3]: 1131
Assign SAMPLER_SET[4]: 331  LLC: 2048
SAMPLER_SET[4]: 331
Assign SAMPLER_SET[5]: 1531  LLC: 2048
SAMPLER_SET[5]: 1531
Assign SAMPLER_SET[6]: 482  LLC: 2048
SAMPLER_SET[6]: 482
Assign SAMPLER_SET[7]: 1275  LLC: 2048
SAMPLER_SET[7]: 1275
Assign SAMPLER_SET[8]: 1876  LLC: 2048
SAMPLER_SET[8]: 1876
Assign SAMPLER_SET[9]: 2038  LLC: 2048
SAMPLER_SET[9]: 2038
Assign SAMPLER_SET[10]: 701  LLC: 2048
SAMPLER_SET[10]: 701
Assign SAMPLER_SET[11]: 479  LLC: 2048
SAMPLER_SET[11]: 479
Assign SAMPLER_SET[12]: 892  LLC: 2048
SAMPLER_SET[12]: 892
Assign SAMPLER_SET[13]: 1820  LLC: 2048
SAMPLER_SET[13]: 1820
Assign SAMPLER_SET[14]: 1505  LLC: 2048
SAMPLER_SET[14]: 1505
Assign SAMPLER_SET[15]: 1159  LLC: 2048
SAMPLER_SET[15]: 1159
Assign SAMPLER_SET[16]: 513  LLC: 2048
SAMPLER_SET[16]: 513
Assign SAMPLER_SET[17]: 703  LLC: 2048
SAMPLER_SET[17]: 703
Assign SAMPLER_SET[18]: 561  LLC: 2048
SAMPLER_SET[18]: 561
Assign SAMPLER_SET[19]: 990  LLC: 2048
SAMPLER_SET[19]: 990
Assign SAMPLER_SET[20]: 342  LLC: 2048
SAMPLER_SET[20]: 342
Assign SAMPLER_SET[21]: 882  LLC: 2048
SAMPLER_SET[21]: 882
Assign SAMPLER_SET[22]: 15  LLC: 2048
SAMPLER_SET[22]: 15
Assign SAMPLER_SET[23]: 71  LLC: 2048
SAMPLER_SET[23]: 71
Assign SAMPLER_SET[24]: 1127  LLC: 2048
SAMPLER_SET[24]: 1127
Assign SAMPLER_SET[25]: 1382  LLC: 2048
SAMPLER_SET[25]: 1382
Assign SAMPLER_SET[26]: 647  LLC: 2048
SAMPLER_SET[26]: 647
Assign SAMPLER_SET[27]: 857  LLC: 2048
SAMPLER_SET[27]: 857
Assign SAMPLER_SET[28]: 1450  LLC: 2048
SAMPLER_SET[28]: 1450
Assign SAMPLER_SET[29]: 1160  LLC: 2048
SAMPLER_SET[29]: 1160
Assign SAMPLER_SET[30]: 1852  LLC: 2048
SAMPLER_SET[30]: 1852
Assign SAMPLER_SET[31]: 1881  LLC: 2048
SAMPLER_SET[31]: 1881
Assign SAMPLER_SET[32]: 1770  LLC: 2048
SAMPLER_SET[32]: 1770
Assign SAMPLER_SET[33]: 1622  LLC: 2048
SAMPLER_SET[33]: 1622
Assign SAMPLER_SET[34]: 275  LLC: 2048
SAMPLER_SET[34]: 275
Assign SAMPLER_SET[35]: 635  LLC: 2048
SAMPLER_SET[35]: 635
Assign SAMPLER_SET[36]: 466  LLC: 2048
SAMPLER_SET[36]: 466
Assign SAMPLER_SET[37]: 1413  LLC: 2048
SAMPLER_SET[37]: 1413
Assign SAMPLER_SET[38]: 417  LLC: 2048
SAMPLER_SET[38]: 417
Assign SAMPLER_SET[39]: 472  LLC: 2048
SAMPLER_SET[39]: 472
Assign SAMPLER_SET[40]: 1340  LLC: 2048
SAMPLER_SET[40]: 1340
Assign SAMPLER_SET[41]: 852  LLC: 2048
SAMPLER_SET[41]: 852
Assign SAMPLER_SET[42]: 1365  LLC: 2048
SAMPLER_SET[42]: 1365
Assign SAMPLER_SET[43]: 47  LLC: 2048
SAMPLER_SET[43]: 47
Assign SAMPLER_SET[44]: 823  LLC: 2048
SAMPLER_SET[44]: 823
Assign SAMPLER_SET[45]: 686  LLC: 2048
SAMPLER_SET[45]: 686
Assign SAMPLER_SET[46]: 1637  LLC: 2048
SAMPLER_SET[46]: 1637
Assign SAMPLER_SET[47]: 1115  LLC: 2048
SAMPLER_SET[47]: 1115
Assign SAMPLER_SET[48]: 986  LLC: 2048
SAMPLER_SET[48]: 986
Assign SAMPLER_SET[49]: 258  LLC: 2048
SAMPLER_SET[49]: 258
Assign SAMPLER_SET[50]: 633  LLC: 2048
SAMPLER_SET[50]: 633
Assign SAMPLER_SET[51]: 920  LLC: 2048
SAMPLER_SET[51]: 920
Assign SAMPLER_SET[52]: 204  LLC: 2048
SAMPLER_SET[52]: 204
Assign SAMPLER_SET[53]: 227  LLC: 2048
SAMPLER_SET[53]: 227
Assign SAMPLER_SET[54]: 1818  LLC: 2048
SAMPLER_SET[54]: 1818
Assign SAMPLER_SET[55]: 886  LLC: 2048
SAMPLER_SET[55]: 886
Assign SAMPLER_SET[56]: 1422  LLC: 2048
SAMPLER_SET[56]: 1422
Assign SAMPLER_SET[57]: 607  LLC: 2048
SAMPLER_SET[57]: 607
Assign SAMPLER_SET[58]: 217  LLC: 2048
SAMPLER_SET[58]: 217
Assign SAMPLER_SET[59]: 1945  LLC: 2048
SAMPLER_SET[59]: 1945
Assign SAMPLER_SET[60]: 143  LLC: 2048
SAMPLER_SET[60]: 143
Assign SAMPLER_SET[61]: 1311  LLC: 2048
SAMPLER_SET[61]: 1311
Assign SAMPLER_SET[62]: 319  LLC: 2048
SAMPLER_SET[62]: 319
Assign SAMPLER_SET[63]: 1846  LLC: 2048
SAMPLER_SET[63]: 1846
Heartbeat CPU 0 instructions: 10000003 cycles: 4305992 heartbeat IPC: 2.32235 cumulative IPC: 2.32235 (Simulation time: 0 hr 0 min 26 sec) 
Heartbeat CPU 0 instructions: 20000003 cycles: 8529536 heartbeat IPC: 2.36768 cumulative IPC: 2.34479 (Simulation time: 0 hr 0 min 51 sec) 
Heartbeat CPU 0 instructions: 30000000 cycles: 12817709 heartbeat IPC: 2.33199 cumulative IPC: 2.34051 (Simulation time: 0 hr 1 min 17 sec) 
Heartbeat CPU 0 instructions: 40000002 cycles: 17074769 heartbeat IPC: 2.34904 cumulative IPC: 2.34264 (Simulation time: 0 hr 1 min 43 sec) 
Heartbeat CPU 0 instructions: 50000003 cycles: 21334584 heartbeat IPC: 2.34752 cumulative IPC: 2.34361 (Simulation time: 0 hr 2 min 9 sec) 
Heartbeat CPU 0 instructions: 60000003 cycles: 25617019 heartbeat IPC: 2.33512 cumulative IPC: 2.34219 (Simulation time: 0 hr 2 min 35 sec) 
Heartbeat CPU 0 instructions: 70000000 cycles: 29866664 heartbeat IPC: 2.35314 cumulative IPC: 2.34375 (Simulation time: 0 hr 3 min 1 sec) 
Heartbeat CPU 0 instructions: 80000003 cycles: 34141686 heartbeat IPC: 2.33917 cumulative IPC: 2.34318 (Simulation time: 0 hr 3 min 26 sec) 
Heartbeat CPU 0 instructions: 90000003 cycles: 38425022 heartbeat IPC: 2.33463 cumulative IPC: 2.34222 (Simulation time: 0 hr 3 min 52 sec) 
Heartbeat CPU 0 instructions: 100000000 cycles: 42688481 heartbeat IPC: 2.34551 cumulative IPC: 2.34255 (Simulation time: 0 hr 4 min 18 sec) 

Warmup complete CPU 0 instructions: 100000004 cycles: 42688482 (Simulation time: 0 hr 4 min 18 sec) 

Heartbeat CPU 0 instructions: 110000000 cycles: 83053272 heartbeat IPC: 0.247741 cumulative IPC: 0.247741 (Simulation time: 0 hr 4 min 47 sec) 
Heartbeat CPU 0 instructions: 120000000 cycles: 122827473 heartbeat IPC: 0.251419 cumulative IPC: 0.249566 (Simulation time: 0 hr 5 min 15 sec) 
Heartbeat CPU 0 instructions: 130000000 cycles: 159910220 heartbeat IPC: 0.269667 cumulative IPC: 0.255925 (Simulation time: 0 hr 5 min 42 sec) 
Heartbeat CPU 0 instructions: 140000001 cycles: 199990989 heartbeat IPC: 0.249496 cumulative IPC: 0.254287 (Simulation time: 0 hr 6 min 11 sec) 
Heartbeat CPU 0 instructions: 150000001 cycles: 238208016 heartbeat IPC: 0.261663 cumulative IPC: 0.255729 (Simulation time: 0 hr 6 min 39 sec) 
Heartbeat CPU 0 instructions: 160000000 cycles: 277414559 heartbeat IPC: 0.255059 cumulative IPC: 0.255617 (Simulation time: 0 hr 7 min 7 sec) 
Heartbeat CPU 0 instructions: 170000000 cycles: 317094665 heartbeat IPC: 0.252015 cumulative IPC: 0.255096 (Simulation time: 0 hr 7 min 35 sec) 
Heartbeat CPU 0 instructions: 180000002 cycles: 356192131 heartbeat IPC: 0.255771 cumulative IPC: 0.25518 (Simulation time: 0 hr 8 min 3 sec) 
Heartbeat CPU 0 instructions: 190000003 cycles: 395461446 heartbeat IPC: 0.254652 cumulative IPC: 0.255122 (Simulation time: 0 hr 8 min 31 sec) 
Heartbeat CPU 0 instructions: 200000000 cycles: 434850637 heartbeat IPC: 0.253877 cumulative IPC: 0.254997 (Simulation time: 0 hr 8 min 59 sec) 
Heartbeat CPU 0 instructions: 210000000 cycles: 475757877 heartbeat IPC: 0.244456 cumulative IPC: 0.254001 (Simulation time: 0 hr 9 min 28 sec) 
Heartbeat CPU 0 instructions: 220000000 cycles: 516771059 heartbeat IPC: 0.243824 cumulative IPC: 0.25312 (Simulation time: 0 hr 9 min 56 sec) 
Heartbeat CPU 0 instructions: 230000002 cycles: 558675395 heartbeat IPC: 0.238639 cumulative IPC: 0.251944 (Simulation time: 0 hr 10 min 26 sec) 
Heartbeat CPU 0 instructions: 240000002 cycles: 599037163 heartbeat IPC: 0.247759 cumulative IPC: 0.251641 (Simulation time: 0 hr 10 min 55 sec) 
Heartbeat CPU 0 instructions: 250000000 cycles: 639390039 heartbeat IPC: 0.247814 cumulative IPC: 0.251382 (Simulation time: 0 hr 11 min 24 sec) 
Heartbeat CPU 0 instructions: 260000003 cycles: 679437172 heartbeat IPC: 0.249706 cumulative IPC: 0.251277 (Simulation time: 0 hr 11 min 53 sec) 
Heartbeat CPU 0 instructions: 270000003 cycles: 718941088 heartbeat IPC: 0.253139 cumulative IPC: 0.251385 (Simulation time: 0 hr 12 min 21 sec) 
Heartbeat CPU 0 instructions: 280000000 cycles: 758927672 heartbeat IPC: 0.250084 cumulative IPC: 0.251313 (Simulation time: 0 hr 12 min 50 sec) 
Heartbeat CPU 0 instructions: 290000000 cycles: 796043899 heartbeat IPC: 0.269424 cumulative IPC: 0.252205 (Simulation time: 0 hr 13 min 18 sec) 
Heartbeat CPU 0 instructions: 300000002 cycles: 835577002 heartbeat IPC: 0.252953 cumulative IPC: 0.252242 (Simulation time: 0 hr 13 min 47 sec) 
Heartbeat CPU 0 instructions: 310000002 cycles: 873319394 heartbeat IPC: 0.264954 cumulative IPC: 0.25282 (Simulation time: 0 hr 14 min 15 sec) 
Heartbeat CPU 0 instructions: 320000000 cycles: 909838904 heartbeat IPC: 0.273826 cumulative IPC: 0.253705 (Simulation time: 0 hr 14 min 43 sec) 
Heartbeat CPU 0 instructions: 330000000 cycles: 946693195 heartbeat IPC: 0.271339 cumulative IPC: 0.254423 (Simulation time: 0 hr 15 min 11 sec) 
Heartbeat CPU 0 instructions: 340000002 cycles: 984641978 heartbeat IPC: 0.263513 cumulative IPC: 0.25479 (Simulation time: 0 hr 15 min 40 sec) 
Heartbeat CPU 0 instructions: 350000002 cycles: 1022449878 heartbeat IPC: 0.264495 cumulative IPC: 0.255164 (Simulation time: 0 hr 16 min 8 sec) 
Heartbeat CPU 0 instructions: 360000003 cycles: 1054928062 heartbeat IPC: 0.307899 cumulative IPC: 0.256856 (Simulation time: 0 hr 16 min 35 sec) 
Heartbeat CPU 0 instructions: 370000001 cycles: 1090242624 heartbeat IPC: 0.283169 cumulative IPC: 0.257743 (Simulation time: 0 hr 17 min 2 sec) 
Heartbeat CPU 0 instructions: 380000000 cycles: 1128752481 heartbeat IPC: 0.259674 cumulative IPC: 0.257812 (Simulation time: 0 hr 17 min 29 sec) 
Heartbeat CPU 0 instructions: 390000000 cycles: 1165982424 heartbeat IPC: 0.268601 cumulative IPC: 0.258169 (Simulation time: 0 hr 17 min 57 sec) 
Heartbeat CPU 0 instructions: 400000002 cycles: 1202746846 heartbeat IPC: 0.272002 cumulative IPC: 0.258608 (Simulation time: 0 hr 18 min 25 sec) 
Heartbeat CPU 0 instructions: 410000002 cycles: 1240968479 heartbeat IPC: 0.261632 cumulative IPC: 0.258704 (Simulation time: 0 hr 18 min 53 sec) 
Heartbeat CPU 0 instructions: 420000000 cycles: 1277182662 heartbeat IPC: 0.276135 cumulative IPC: 0.259215 (Simulation time: 0 hr 19 min 21 sec) 
Heartbeat CPU 0 instructions: 430000000 cycles: 1313983912 heartbeat IPC: 0.27173 cumulative IPC: 0.259578 (Simulation time: 0 hr 19 min 48 sec) 
Heartbeat CPU 0 instructions: 440000000 cycles: 1353466840 heartbeat IPC: 0.253274 cumulative IPC: 0.259388 (Simulation time: 0 hr 20 min 17 sec) 
Heartbeat CPU 0 instructions: 450000001 cycles: 1390980401 heartbeat IPC: 0.26657 cumulative IPC: 0.259588 (Simulation time: 0 hr 20 min 45 sec) 
Heartbeat CPU 0 instructions: 460000000 cycles: 1429919235 heartbeat IPC: 0.256813 cumulative IPC: 0.25951 (Simulation time: 0 hr 21 min 14 sec) 
Heartbeat CPU 0 instructions: 470000000 cycles: 1468449386 heartbeat IPC: 0.259537 cumulative IPC: 0.259511 (Simulation time: 0 hr 21 min 42 sec) 
Heartbeat CPU 0 instructions: 480000003 cycles: 1505191441 heartbeat IPC: 0.272168 cumulative IPC: 0.259829 (Simulation time: 0 hr 22 min 10 sec) 
Heartbeat CPU 0 instructions: 490000001 cycles: 1543196200 heartbeat IPC: 0.263125 cumulative IPC: 0.259912 (Simulation time: 0 hr 22 min 38 sec) 
Heartbeat CPU 0 instructions: 500000003 cycles: 1580552366 heartbeat IPC: 0.267693 cumulative IPC: 0.260101 (Simulation time: 0 hr 23 min 6 sec) 
Heartbeat CPU 0 instructions: 510000001 cycles: 1620532992 heartbeat IPC: 0.250121 cumulative IPC: 0.259848 (Simulation time: 0 hr 23 min 35 sec) 
Heartbeat CPU 0 instructions: 520000002 cycles: 1658461350 heartbeat IPC: 0.263655 cumulative IPC: 0.259938 (Simulation time: 0 hr 24 min 3 sec) 
Heartbeat CPU 0 instructions: 530000003 cycles: 1698143225 heartbeat IPC: 0.252004 cumulative IPC: 0.259747 (Simulation time: 0 hr 24 min 32 sec) 
Heartbeat CPU 0 instructions: 540000000 cycles: 1736008737 heartbeat IPC: 0.264092 cumulative IPC: 0.259845 (Simulation time: 0 hr 25 min 1 sec) 
Heartbeat CPU 0 instructions: 550000000 cycles: 1775189217 heartbeat IPC: 0.255229 cumulative IPC: 0.25974 (Simulation time: 0 hr 25 min 31 sec) 
Heartbeat CPU 0 instructions: 560000002 cycles: 1813834051 heartbeat IPC: 0.258767 cumulative IPC: 0.259719 (Simulation time: 0 hr 26 min 0 sec) 
Heartbeat CPU 0 instructions: 570000000 cycles: 1852551901 heartbeat IPC: 0.258279 cumulative IPC: 0.259688 (Simulation time: 0 hr 26 min 30 sec) 
Heartbeat CPU 0 instructions: 580000002 cycles: 1892084837 heartbeat IPC: 0.252954 cumulative IPC: 0.259544 (Simulation time: 0 hr 27 min 0 sec) 
Heartbeat CPU 0 instructions: 590000001 cycles: 1932456258 heartbeat IPC: 0.2477 cumulative IPC: 0.259291 (Simulation time: 0 hr 27 min 30 sec) 
Heartbeat CPU 0 instructions: 600000000 cycles: 1971468350 heartbeat IPC: 0.256331 cumulative IPC: 0.259231 (Simulation time: 0 hr 28 min 0 sec) 
Heartbeat CPU 0 instructions: 610000000 cycles: 2008846729 heartbeat IPC: 0.267534 cumulative IPC: 0.259389 (Simulation time: 0 hr 28 min 30 sec) 
Heartbeat CPU 0 instructions: 620000000 cycles: 2049230271 heartbeat IPC: 0.247626 cumulative IPC: 0.259152 (Simulation time: 0 hr 29 min 1 sec) 
Heartbeat CPU 0 instructions: 630000002 cycles: 2088396845 heartbeat IPC: 0.25532 cumulative IPC: 0.259079 (Simulation time: 0 hr 29 min 30 sec) 
Heartbeat CPU 0 instructions: 640000001 cycles: 2128170353 heartbeat IPC: 0.251424 cumulative IPC: 0.258933 (Simulation time: 0 hr 30 min 1 sec) 
Heartbeat CPU 0 instructions: 650000000 cycles: 2168071924 heartbeat IPC: 0.250617 cumulative IPC: 0.258777 (Simulation time: 0 hr 30 min 31 sec) 
Heartbeat CPU 0 instructions: 660000000 cycles: 2206695536 heartbeat IPC: 0.258909 cumulative IPC: 0.258779 (Simulation time: 0 hr 31 min 0 sec) 
Heartbeat CPU 0 instructions: 670000000 cycles: 2247383109 heartbeat IPC: 0.245775 cumulative IPC: 0.258539 (Simulation time: 0 hr 31 min 31 sec) 
Heartbeat CPU 0 instructions: 680000002 cycles: 2286179955 heartbeat IPC: 0.257753 cumulative IPC: 0.258526 (Simulation time: 0 hr 32 min 1 sec) 
Heartbeat CPU 0 instructions: 690000000 cycles: 2324911328 heartbeat IPC: 0.258189 cumulative IPC: 0.25852 (Simulation time: 0 hr 32 min 31 sec) 
Heartbeat CPU 0 instructions: 700000000 cycles: 2358614054 heartbeat IPC: 0.296712 cumulative IPC: 0.259076 (Simulation time: 0 hr 32 min 59 sec) 
Heartbeat CPU 0 instructions: 710000001 cycles: 2388568847 heartbeat IPC: 0.333836 cumulative IPC: 0.26003 (Simulation time: 0 hr 33 min 26 sec) 
Heartbeat CPU 0 instructions: 720000001 cycles: 2416307704 heartbeat IPC: 0.360505 cumulative IPC: 0.261204 (Simulation time: 0 hr 33 min 51 sec) 
Heartbeat CPU 0 instructions: 730000000 cycles: 2451244971 heartbeat IPC: 0.286227 cumulative IPC: 0.261567 (Simulation time: 0 hr 34 min 20 sec) 
Heartbeat CPU 0 instructions: 740000001 cycles: 2487683529 heartbeat IPC: 0.274435 cumulative IPC: 0.261759 (Simulation time: 0 hr 34 min 49 sec) 
Heartbeat CPU 0 instructions: 750000000 cycles: 2523408704 heartbeat IPC: 0.279915 cumulative IPC: 0.262021 (Simulation time: 0 hr 35 min 18 sec) 
Heartbeat CPU 0 instructions: 760000002 cycles: 2562119321 heartbeat IPC: 0.258327 cumulative IPC: 0.261964 (Simulation time: 0 hr 35 min 47 sec) 
Heartbeat CPU 0 instructions: 770000000 cycles: 2600681274 heartbeat IPC: 0.259323 cumulative IPC: 0.261924 (Simulation time: 0 hr 36 min 18 sec) 
Heartbeat CPU 0 instructions: 780000002 cycles: 2639350266 heartbeat IPC: 0.258605 cumulative IPC: 0.261875 (Simulation time: 0 hr 36 min 47 sec) 
Heartbeat CPU 0 instructions: 790000003 cycles: 2678445515 heartbeat IPC: 0.255786 cumulative IPC: 0.261784 (Simulation time: 0 hr 37 min 17 sec) 
Heartbeat CPU 0 instructions: 800000002 cycles: 2716806269 heartbeat IPC: 0.260683 cumulative IPC: 0.261769 (Simulation time: 0 hr 37 min 46 sec) 
Heartbeat CPU 0 instructions: 810000002 cycles: 2753194933 heartbeat IPC: 0.274811 cumulative IPC: 0.261944 (Simulation time: 0 hr 38 min 14 sec) 
Heartbeat CPU 0 instructions: 820000000 cycles: 2792502001 heartbeat IPC: 0.254407 cumulative IPC: 0.261836 (Simulation time: 0 hr 38 min 43 sec) 
Heartbeat CPU 0 instructions: 830000003 cycles: 2830452099 heartbeat IPC: 0.263504 cumulative IPC: 0.261859 (Simulation time: 0 hr 39 min 13 sec) 
Heartbeat CPU 0 instructions: 840000000 cycles: 2869158454 heartbeat IPC: 0.258355 cumulative IPC: 0.261811 (Simulation time: 0 hr 39 min 42 sec) 
Heartbeat CPU 0 instructions: 850000000 cycles: 2907723836 heartbeat IPC: 0.2593 cumulative IPC: 0.261777 (Simulation time: 0 hr 40 min 11 sec) 
Heartbeat CPU 0 instructions: 860000003 cycles: 2945877317 heartbeat IPC: 0.262099 cumulative IPC: 0.261781 (Simulation time: 0 hr 40 min 39 sec) 
Heartbeat CPU 0 instructions: 870000002 cycles: 2985522019 heartbeat IPC: 0.25224 cumulative IPC: 0.261653 (Simulation time: 0 hr 41 min 8 sec) 
Heartbeat CPU 0 instructions: 880000000 cycles: 3024126506 heartbeat IPC: 0.259037 cumulative IPC: 0.261619 (Simulation time: 0 hr 41 min 37 sec) 
Heartbeat CPU 0 instructions: 890000000 cycles: 3063572291 heartbeat IPC: 0.253513 cumulative IPC: 0.261513 (Simulation time: 0 hr 42 min 7 sec) 
Heartbeat CPU 0 instructions: 900000001 cycles: 3103470436 heartbeat IPC: 0.250638 cumulative IPC: 0.261371 (Simulation time: 0 hr 42 min 36 sec) 
Heartbeat CPU 0 instructions: 910000000 cycles: 3142722398 heartbeat IPC: 0.254764 cumulative IPC: 0.261287 (Simulation time: 0 hr 43 min 5 sec) 
Heartbeat CPU 0 instructions: 920000003 cycles: 3182336172 heartbeat IPC: 0.252438 cumulative IPC: 0.261176 (Simulation time: 0 hr 43 min 34 sec) 
Heartbeat CPU 0 instructions: 930000000 cycles: 3223332052 heartbeat IPC: 0.243927 cumulative IPC: 0.260953 (Simulation time: 0 hr 44 min 4 sec) 
Heartbeat CPU 0 instructions: 940000003 cycles: 3262819766 heartbeat IPC: 0.253243 cumulative IPC: 0.260859 (Simulation time: 0 hr 44 min 33 sec) 
Heartbeat CPU 0 instructions: 950000003 cycles: 3300757529 heartbeat IPC: 0.26359 cumulative IPC: 0.260891 (Simulation time: 0 hr 45 min 1 sec) 
Heartbeat CPU 0 instructions: 960000001 cycles: 3340938495 heartbeat IPC: 0.248874 cumulative IPC: 0.260744 (Simulation time: 0 hr 45 min 31 sec) 
Heartbeat CPU 0 instructions: 970000003 cycles: 3378607273 heartbeat IPC: 0.265472 cumulative IPC: 0.260798 (Simulation time: 0 hr 46 min 1 sec) 
Heartbeat CPU 0 instructions: 980000002 cycles: 3418671227 heartbeat IPC: 0.249601 cumulative IPC: 0.260665 (Simulation time: 0 hr 46 min 31 sec) 
Heartbeat CPU 0 instructions: 990000000 cycles: 3457096563 heartbeat IPC: 0.260245 cumulative IPC: 0.26066 (Simulation time: 0 hr 47 min 0 sec) 
Heartbeat CPU 0 instructions: 1000000000 cycles: 3498034263 heartbeat IPC: 0.244274 cumulative IPC: 0.260466 (Simulation time: 0 hr 47 min 31 sec) 
Heartbeat CPU 0 instructions: 1010000000 cycles: 3535171415 heartbeat IPC: 0.269272 cumulative IPC: 0.26056 (Simulation time: 0 hr 47 min 59 sec) 
Heartbeat CPU 0 instructions: 1020000002 cycles: 3573516804 heartbeat IPC: 0.260788 cumulative IPC: 0.260562 (Simulation time: 0 hr 48 min 27 sec) 
Heartbeat CPU 0 instructions: 1030000001 cycles: 3615469994 heartbeat IPC: 0.238361 cumulative IPC: 0.260301 (Simulation time: 0 hr 48 min 58 sec) 
Heartbeat CPU 0 instructions: 1040000003 cycles: 3655491355 heartbeat IPC: 0.249867 cumulative IPC: 0.260186 (Simulation time: 0 hr 49 min 27 sec) 
Heartbeat CPU 0 instructions: 1050000000 cycles: 3695511969 heartbeat IPC: 0.249871 cumulative IPC: 0.260073 (Simulation time: 0 hr 49 min 57 sec) 
Heartbeat CPU 0 instructions: 1060000001 cycles: 3733403765 heartbeat IPC: 0.263909 cumulative IPC: 0.260112 (Simulation time: 0 hr 50 min 26 sec) 
Heartbeat CPU 0 instructions: 1070000003 cycles: 3771165205 heartbeat IPC: 0.26482 cumulative IPC: 0.26016 (Simulation time: 0 hr 50 min 56 sec) 
Heartbeat CPU 0 instructions: 1080000001 cycles: 3806672746 heartbeat IPC: 0.28163 cumulative IPC: 0.260362 (Simulation time: 0 hr 51 min 24 sec) 
Heartbeat CPU 0 instructions: 1090000000 cycles: 3839877164 heartbeat IPC: 0.301165 cumulative IPC: 0.260719 (Simulation time: 0 hr 51 min 51 sec) 
Heartbeat CPU 0 instructions: 1100000000 cycles: 3872098292 heartbeat IPC: 0.310355 cumulative IPC: 0.261137 (Simulation time: 0 hr 52 min 18 sec) 
Finished CPU 0 instructions: 1000000002 cycles: 3829409825 cumulative IPC: 0.261137 (Simulation time: 0 hr 52 min 18 sec) 

ChampSim completed all CPUs

Region of Interest Statistics

CPU 0 cumulative IPC: 0.261137 instructions: 1000000002 cycles: 3829409825
L1D TOTAL     ACCESS:  343543036  HIT:  318248560  MISS:   25294476
L1D LOAD      ACCESS:  190760735  HIT:  168642723  MISS:   22118012
L1D RFO       ACCESS:  152782301  HIT:  149605837  MISS:    3176464
L1D PREFETCH  ACCESS:          0  HIT:          0  MISS:          0
L1D WRITEBACK ACCESS:          0  HIT:          0  MISS:          0
L1D PREFETCH  REQUESTED:          0  ISSUED:          0  USEFUL:          0  USELESS:          0
L1D AVERAGE MISS LATENCY: 176.13 cycles
L1I TOTAL     ACCESS:  186054075  HIT:  186008384  MISS:      45691
L1I LOAD      ACCESS:  186054075  HIT:  186008384  MISS:      45691
L1I RFO       ACCESS:          0  HIT:          0  MISS:          0
L1I PREFETCH  ACCESS:          0  HIT:          0  MISS:          0
L1I WRITEBACK ACCESS:          0  HIT:          0  MISS:          0
L1I PREFETCH  REQUESTED:          0  ISSUED:          0  USEFUL:          0  USELESS:          0
L1I AVERAGE MISS LATENCY: 134.606 cycles
L2C TOTAL     ACCESS:   36176924  HIT:   14369957  MISS:   21806967
L2C LOAD      ACCESS:   22162656  HIT:    3391620  MISS:   18771036
L2C RFO       ACCESS:    3176425  HIT:     181616  MISS:    2994809
L2C PREFETCH  ACCESS:          0  HIT:          0  MISS:          0
L2C WRITEBACK ACCESS:   10837843  HIT:   10796721  MISS:      41122
L2C PREFETCH  REQUESTED:          0  ISSUED:          0  USEFUL:          0  USELESS:          0
L2C AVERAGE MISS LATENCY: 188.311 cycles
LLC TOTAL     ACCESS:   31194131  HIT:    7349227  MISS:   23844904
LLC LOAD      ACCESS:   18771001  HIT:    3245855  MISS:   15525146
LLC RFO       ACCESS:    2994799  HIT:     521839  MISS:    2472960
LLC PREFETCH  ACCESS:          0  HIT:          0  MISS:          0
LLC WRITEBACK ACCESS:    9428331  HIT:    3581533  MISS:    5846798
LLC PREFETCH  REQUESTED:          0  ISSUED:          0  USEFUL:          0  USELESS:          0
LLC AVERAGE MISS LATENCY: 133.231 cycles
Major fault: 0 Minor fault: 36042
==============================
Perceptron RRIP Stats:
   Num Updates:          967083
   Num Primary Trains:   49076
   Num Secondary Trains: 50370
==============================
primary_perceptron #0: 0 0 0 2 4 0 8 2 4 -2 2 -2 -6 -2 0 -8 
secondary_perceptron #0: 2 0 2 0 4 -4 6 0 6 2 2 -2 -6 -2 -2 -4 2 4 -4 -2 -12 


DRAM Statistics
 CHANNEL 0
 RQ ROW_BUFFER_HIT:    2103638  ROW_BUFFER_MISS:   15894388
 DBUS_CONGESTED:    5045433
 WQ ROW_BUFFER_HIT:    2228666  ROW_BUFFER_MISS:    5169186  FULL:          0

 AVG_CONGESTED_CYCLE: 6

CPU 0 Branch Prediction Accuracy: 94.1527% MPKI: 14.1178 Average ROB Occupancy at Mispredict: 44.1458

Branch types
NOT_BRANCH: 758557651 75.8558%
BRANCH_DIRECT_JUMP: 19502182 1.95022%
BRANCH_INDIRECT: 2970500 0.29705%
BRANCH_CONDITIONAL: 159215241 15.9215%
BRANCH_DIRECT_CALL: 25720589 2.57206%
BRANCH_INDIRECT_CALL: 4156438 0.415644%
BRANCH_RETURN: 29877023 2.9877%
BRANCH_OTHER: 0 0%

