
*** ChampSim Multicore Out-of-Order Simulator ***

Warmup Instructions: 100000000
Simulation Instructions: 1000000000
Number of CPUs: 1
LLC sets: 2048
LLC ways: 16
Off-chip DRAM Size: 4096 MB Channels: 1 Width: 64-bit Data Rate: 3200 MT/s

CPU 0 runs /scratch/user/kevin.weston/dpc3-traces/471.champsimtrace.xz
CPU 0 Bimodal branch predictor
Initialize SHIP state
Assign rand_sets[0]: 454  LLC: 2048
rand_sets[0]: 454
Assign rand_sets[1]: 1662  LLC: 2048
rand_sets[1]: 1662
Assign rand_sets[2]: 1921  LLC: 2048
rand_sets[2]: 1921
Assign rand_sets[3]: 1131  LLC: 2048
rand_sets[3]: 1131
Assign rand_sets[4]: 331  LLC: 2048
rand_sets[4]: 331
Assign rand_sets[5]: 1531  LLC: 2048
rand_sets[5]: 1531
Assign rand_sets[6]: 482  LLC: 2048
rand_sets[6]: 482
Assign rand_sets[7]: 1275  LLC: 2048
rand_sets[7]: 1275
Assign rand_sets[8]: 1876  LLC: 2048
rand_sets[8]: 1876
Assign rand_sets[9]: 2038  LLC: 2048
rand_sets[9]: 2038
Assign rand_sets[10]: 701  LLC: 2048
rand_sets[10]: 701
Assign rand_sets[11]: 479  LLC: 2048
rand_sets[11]: 479
Assign rand_sets[12]: 892  LLC: 2048
rand_sets[12]: 892
Assign rand_sets[13]: 1820  LLC: 2048
rand_sets[13]: 1820
Assign rand_sets[14]: 1505  LLC: 2048
rand_sets[14]: 1505
Assign rand_sets[15]: 1159  LLC: 2048
rand_sets[15]: 1159
Assign rand_sets[16]: 513  LLC: 2048
rand_sets[16]: 513
Assign rand_sets[17]: 703  LLC: 2048
rand_sets[17]: 703
Assign rand_sets[18]: 561  LLC: 2048
rand_sets[18]: 561
Assign rand_sets[19]: 990  LLC: 2048
rand_sets[19]: 990
Assign rand_sets[20]: 342  LLC: 2048
rand_sets[20]: 342
Assign rand_sets[21]: 882  LLC: 2048
rand_sets[21]: 882
Assign rand_sets[22]: 15  LLC: 2048
rand_sets[22]: 15
Assign rand_sets[23]: 71  LLC: 2048
rand_sets[23]: 71
Assign rand_sets[24]: 1127  LLC: 2048
rand_sets[24]: 1127
Assign rand_sets[25]: 1382  LLC: 2048
rand_sets[25]: 1382
Assign rand_sets[26]: 647  LLC: 2048
rand_sets[26]: 647
Assign rand_sets[27]: 857  LLC: 2048
rand_sets[27]: 857
Assign rand_sets[28]: 1450  LLC: 2048
rand_sets[28]: 1450
Assign rand_sets[29]: 1160  LLC: 2048
rand_sets[29]: 1160
Assign rand_sets[30]: 1852  LLC: 2048
rand_sets[30]: 1852
Assign rand_sets[31]: 1881  LLC: 2048
rand_sets[31]: 1881
Assign rand_sets[32]: 1770  LLC: 2048
rand_sets[32]: 1770
Assign rand_sets[33]: 1622  LLC: 2048
rand_sets[33]: 1622
Assign rand_sets[34]: 275  LLC: 2048
rand_sets[34]: 275
Assign rand_sets[35]: 635  LLC: 2048
rand_sets[35]: 635
Assign rand_sets[36]: 466  LLC: 2048
rand_sets[36]: 466
Assign rand_sets[37]: 1413  LLC: 2048
rand_sets[37]: 1413
Assign rand_sets[38]: 417  LLC: 2048
rand_sets[38]: 417
Assign rand_sets[39]: 472  LLC: 2048
rand_sets[39]: 472
Assign rand_sets[40]: 1340  LLC: 2048
rand_sets[40]: 1340
Assign rand_sets[41]: 852  LLC: 2048
rand_sets[41]: 852
Assign rand_sets[42]: 1365  LLC: 2048
rand_sets[42]: 1365
Assign rand_sets[43]: 47  LLC: 2048
rand_sets[43]: 47
Assign rand_sets[44]: 823  LLC: 2048
rand_sets[44]: 823
Assign rand_sets[45]: 686  LLC: 2048
rand_sets[45]: 686
Assign rand_sets[46]: 1637  LLC: 2048
rand_sets[46]: 1637
Assign rand_sets[47]: 1115  LLC: 2048
rand_sets[47]: 1115
Assign rand_sets[48]: 986  LLC: 2048
rand_sets[48]: 986
Assign rand_sets[49]: 258  LLC: 2048
rand_sets[49]: 258
Assign rand_sets[50]: 633  LLC: 2048
rand_sets[50]: 633
Assign rand_sets[51]: 920  LLC: 2048
rand_sets[51]: 920
Assign rand_sets[52]: 204  LLC: 2048
rand_sets[52]: 204
Assign rand_sets[53]: 227  LLC: 2048
rand_sets[53]: 227
Assign rand_sets[54]: 1818  LLC: 2048
rand_sets[54]: 1818
Assign rand_sets[55]: 886  LLC: 2048
rand_sets[55]: 886
Assign rand_sets[56]: 1422  LLC: 2048
rand_sets[56]: 1422
Assign rand_sets[57]: 607  LLC: 2048
rand_sets[57]: 607
Assign rand_sets[58]: 217  LLC: 2048
rand_sets[58]: 217
Assign rand_sets[59]: 1945  LLC: 2048
rand_sets[59]: 1945
Assign rand_sets[60]: 143  LLC: 2048
rand_sets[60]: 143
Assign rand_sets[61]: 1311  LLC: 2048
rand_sets[61]: 1311
Assign rand_sets[62]: 319  LLC: 2048
rand_sets[62]: 319
Assign rand_sets[63]: 1846  LLC: 2048
rand_sets[63]: 1846
Assign rand_sets[64]: 238  LLC: 2048
rand_sets[64]: 238
Assign rand_sets[65]: 67  LLC: 2048
rand_sets[65]: 67
Assign rand_sets[66]: 1912  LLC: 2048
rand_sets[66]: 1912
Assign rand_sets[67]: 1613  LLC: 2048
rand_sets[67]: 1613
Assign rand_sets[68]: 1293  LLC: 2048
rand_sets[68]: 1293
Assign rand_sets[69]: 1018  LLC: 2048
rand_sets[69]: 1018
Assign rand_sets[70]: 1982  LLC: 2048
rand_sets[70]: 1982
Assign rand_sets[71]: 1702  LLC: 2048
rand_sets[71]: 1702
Assign rand_sets[72]: 1498  LLC: 2048
rand_sets[72]: 1498
Assign rand_sets[73]: 228  LLC: 2048
rand_sets[73]: 228
Assign rand_sets[74]: 1414  LLC: 2048
rand_sets[74]: 1414
Assign rand_sets[75]: 1166  LLC: 2048
rand_sets[75]: 1166
Assign rand_sets[76]: 732  LLC: 2048
rand_sets[76]: 732
Assign rand_sets[77]: 297  LLC: 2048
rand_sets[77]: 297
Assign rand_sets[78]: 1133  LLC: 2048
rand_sets[78]: 1133
Assign rand_sets[79]: 846  LLC: 2048
rand_sets[79]: 846
Assign rand_sets[80]: 767  LLC: 2048
rand_sets[80]: 767
Assign rand_sets[81]: 1878  LLC: 2048
rand_sets[81]: 1878
Assign rand_sets[82]: 993  LLC: 2048
rand_sets[82]: 993
Assign rand_sets[83]: 1392  LLC: 2048
rand_sets[83]: 1392
Assign rand_sets[84]: 1568  LLC: 2048
rand_sets[84]: 1568
Assign rand_sets[85]: 1787  LLC: 2048
rand_sets[85]: 1787
Assign rand_sets[86]: 399  LLC: 2048
rand_sets[86]: 399
Assign rand_sets[87]: 1201  LLC: 2048
rand_sets[87]: 1201
Assign rand_sets[88]: 856  LLC: 2048
rand_sets[88]: 856
Assign rand_sets[89]: 773  LLC: 2048
rand_sets[89]: 773
Assign rand_sets[90]: 1680  LLC: 2048
rand_sets[90]: 1680
Assign rand_sets[91]: 1477  LLC: 2048
rand_sets[91]: 1477
Assign rand_sets[92]: 9  LLC: 2048
rand_sets[92]: 9
Assign rand_sets[93]: 1500  LLC: 2048
rand_sets[93]: 1500
Assign rand_sets[94]: 851  LLC: 2048
rand_sets[94]: 851
Assign rand_sets[95]: 973  LLC: 2048
rand_sets[95]: 973
Assign rand_sets[96]: 938  LLC: 2048
rand_sets[96]: 938
Assign rand_sets[97]: 1851  LLC: 2048
rand_sets[97]: 1851
Assign rand_sets[98]: 1608  LLC: 2048
rand_sets[98]: 1608
Assign rand_sets[99]: 1945  LLC: 2048
Assign rand_sets[99]: 1106  LLC: 2048
rand_sets[99]: 1106
Assign rand_sets[100]: 979  LLC: 2048
rand_sets[100]: 979
Assign rand_sets[101]: 338  LLC: 2048
rand_sets[101]: 338
Assign rand_sets[102]: 1693  LLC: 2048
rand_sets[102]: 1693
Assign rand_sets[103]: 6  LLC: 2048
rand_sets[103]: 6
Assign rand_sets[104]: 671  LLC: 2048
rand_sets[104]: 671
Assign rand_sets[105]: 490  LLC: 2048
rand_sets[105]: 490
Assign rand_sets[106]: 1461  LLC: 2048
rand_sets[106]: 1461
Assign rand_sets[107]: 1730  LLC: 2048
rand_sets[107]: 1730
Assign rand_sets[108]: 1030  LLC: 2048
rand_sets[108]: 1030
Assign rand_sets[109]: 19  LLC: 2048
rand_sets[109]: 19
Assign rand_sets[110]: 920  LLC: 2048
Assign rand_sets[110]: 329  LLC: 2048
rand_sets[110]: 329
Assign rand_sets[111]: 1714  LLC: 2048
rand_sets[111]: 1714
Assign rand_sets[112]: 1  LLC: 2048
rand_sets[112]: 1
Assign rand_sets[113]: 1822  LLC: 2048
rand_sets[113]: 1822
Assign rand_sets[114]: 172  LLC: 2048
rand_sets[114]: 172
Assign rand_sets[115]: 1586  LLC: 2048
rand_sets[115]: 1586
Assign rand_sets[116]: 648  LLC: 2048
rand_sets[116]: 648
Assign rand_sets[117]: 1329  LLC: 2048
rand_sets[117]: 1329
Assign rand_sets[118]: 668  LLC: 2048
rand_sets[118]: 668
Assign rand_sets[119]: 1874  LLC: 2048
rand_sets[119]: 1874
Assign rand_sets[120]: 70  LLC: 2048
rand_sets[120]: 70
Assign rand_sets[121]: 661  LLC: 2048
rand_sets[121]: 661
Assign rand_sets[122]: 1649  LLC: 2048
rand_sets[122]: 1649
Assign rand_sets[123]: 1590  LLC: 2048
rand_sets[123]: 1590
Assign rand_sets[124]: 911  LLC: 2048
rand_sets[124]: 911
Assign rand_sets[125]: 1367  LLC: 2048
rand_sets[125]: 1367
Assign rand_sets[126]: 1782  LLC: 2048
rand_sets[126]: 1782
Assign rand_sets[127]: 569  LLC: 2048
rand_sets[127]: 569
Heartbeat CPU 0 instructions: 10000003 cycles: 4307019 heartbeat IPC: 2.32179 cumulative IPC: 2.32179 (Simulation time: 0 hr 0 min 25 sec) 
Heartbeat CPU 0 instructions: 20000003 cycles: 8529538 heartbeat IPC: 2.36825 cumulative IPC: 2.34479 (Simulation time: 0 hr 0 min 50 sec) 
Heartbeat CPU 0 instructions: 30000000 cycles: 12817770 heartbeat IPC: 2.33196 cumulative IPC: 2.3405 (Simulation time: 0 hr 1 min 16 sec) 
Heartbeat CPU 0 instructions: 40000002 cycles: 17073867 heartbeat IPC: 2.34957 cumulative IPC: 2.34276 (Simulation time: 0 hr 1 min 41 sec) 
Heartbeat CPU 0 instructions: 50000003 cycles: 21333505 heartbeat IPC: 2.34762 cumulative IPC: 2.34373 (Simulation time: 0 hr 2 min 6 sec) 
Heartbeat CPU 0 instructions: 60000003 cycles: 25614940 heartbeat IPC: 2.33567 cumulative IPC: 2.34238 (Simulation time: 0 hr 2 min 31 sec) 
Heartbeat CPU 0 instructions: 70000000 cycles: 29864175 heartbeat IPC: 2.35336 cumulative IPC: 2.34395 (Simulation time: 0 hr 2 min 56 sec) 
Heartbeat CPU 0 instructions: 80000003 cycles: 34138441 heartbeat IPC: 2.33958 cumulative IPC: 2.3434 (Simulation time: 0 hr 3 min 21 sec) 
Heartbeat CPU 0 instructions: 90000003 cycles: 38421214 heartbeat IPC: 2.33494 cumulative IPC: 2.34246 (Simulation time: 0 hr 3 min 46 sec) 
Heartbeat CPU 0 instructions: 100000000 cycles: 42684736 heartbeat IPC: 2.34548 cumulative IPC: 2.34276 (Simulation time: 0 hr 4 min 12 sec) 

Warmup complete CPU 0 instructions: 100000004 cycles: 42684737 (Simulation time: 0 hr 4 min 12 sec) 

Heartbeat CPU 0 instructions: 110000000 cycles: 80463690 heartbeat IPC: 0.264698 cumulative IPC: 0.264698 (Simulation time: 0 hr 4 min 40 sec) 
Heartbeat CPU 0 instructions: 120000000 cycles: 118735689 heartbeat IPC: 0.261288 cumulative IPC: 0.262982 (Simulation time: 0 hr 5 min 9 sec) 
Heartbeat CPU 0 instructions: 130000000 cycles: 154066801 heartbeat IPC: 0.283037 cumulative IPC: 0.269343 (Simulation time: 0 hr 5 min 36 sec) 
Heartbeat CPU 0 instructions: 140000001 cycles: 191883104 heartbeat IPC: 0.264436 cumulative IPC: 0.268099 (Simulation time: 0 hr 6 min 5 sec) 
Heartbeat CPU 0 instructions: 150000001 cycles: 227943205 heartbeat IPC: 0.277315 cumulative IPC: 0.269893 (Simulation time: 0 hr 6 min 32 sec) 
Heartbeat CPU 0 instructions: 160000000 cycles: 264326501 heartbeat IPC: 0.274851 cumulative IPC: 0.270707 (Simulation time: 0 hr 7 min 0 sec) 
Heartbeat CPU 0 instructions: 170000000 cycles: 302146108 heartbeat IPC: 0.264413 cumulative IPC: 0.26979 (Simulation time: 0 hr 7 min 28 sec) 
Heartbeat CPU 0 instructions: 180000002 cycles: 339093965 heartbeat IPC: 0.270652 cumulative IPC: 0.269897 (Simulation time: 0 hr 7 min 57 sec) 
Heartbeat CPU 0 instructions: 190000003 cycles: 376381222 heartbeat IPC: 0.268188 cumulative IPC: 0.269706 (Simulation time: 0 hr 8 min 25 sec) 
Heartbeat CPU 0 instructions: 200000000 cycles: 413114435 heartbeat IPC: 0.272233 cumulative IPC: 0.269957 (Simulation time: 0 hr 8 min 53 sec) 
Heartbeat CPU 0 instructions: 210000000 cycles: 451729680 heartbeat IPC: 0.258965 cumulative IPC: 0.268919 (Simulation time: 0 hr 9 min 22 sec) 
Heartbeat CPU 0 instructions: 220000000 cycles: 490971964 heartbeat IPC: 0.254827 cumulative IPC: 0.267686 (Simulation time: 0 hr 9 min 51 sec) 
Heartbeat CPU 0 instructions: 230000002 cycles: 531004904 heartbeat IPC: 0.249794 cumulative IPC: 0.266219 (Simulation time: 0 hr 10 min 21 sec) 
Heartbeat CPU 0 instructions: 240000002 cycles: 568947687 heartbeat IPC: 0.263555 cumulative IPC: 0.266027 (Simulation time: 0 hr 10 min 49 sec) 
Heartbeat CPU 0 instructions: 250000000 cycles: 607554556 heartbeat IPC: 0.259021 cumulative IPC: 0.265548 (Simulation time: 0 hr 11 min 18 sec) 
Heartbeat CPU 0 instructions: 260000003 cycles: 645022371 heartbeat IPC: 0.266896 cumulative IPC: 0.265632 (Simulation time: 0 hr 11 min 47 sec) 
Heartbeat CPU 0 instructions: 270000003 cycles: 682946194 heartbeat IPC: 0.263687 cumulative IPC: 0.265517 (Simulation time: 0 hr 12 min 15 sec) 
Heartbeat CPU 0 instructions: 280000000 cycles: 720353605 heartbeat IPC: 0.267327 cumulative IPC: 0.265616 (Simulation time: 0 hr 12 min 44 sec) 
Heartbeat CPU 0 instructions: 290000000 cycles: 756075795 heartbeat IPC: 0.279938 cumulative IPC: 0.266334 (Simulation time: 0 hr 13 min 12 sec) 
Heartbeat CPU 0 instructions: 300000002 cycles: 793442476 heartbeat IPC: 0.267618 cumulative IPC: 0.266398 (Simulation time: 0 hr 13 min 41 sec) 
Heartbeat CPU 0 instructions: 310000002 cycles: 830171402 heartbeat IPC: 0.272265 cumulative IPC: 0.266671 (Simulation time: 0 hr 14 min 10 sec) 
Heartbeat CPU 0 instructions: 320000000 cycles: 866006116 heartbeat IPC: 0.279059 cumulative IPC: 0.26721 (Simulation time: 0 hr 14 min 38 sec) 
Heartbeat CPU 0 instructions: 330000000 cycles: 902182775 heartbeat IPC: 0.276421 cumulative IPC: 0.267598 (Simulation time: 0 hr 15 min 7 sec) 
Heartbeat CPU 0 instructions: 340000002 cycles: 937910810 heartbeat IPC: 0.279892 cumulative IPC: 0.268089 (Simulation time: 0 hr 15 min 35 sec) 
Heartbeat CPU 0 instructions: 350000002 cycles: 973276026 heartbeat IPC: 0.282764 cumulative IPC: 0.268646 (Simulation time: 0 hr 16 min 4 sec) 
Heartbeat CPU 0 instructions: 360000003 cycles: 1004722252 heartbeat IPC: 0.318003 cumulative IPC: 0.27026 (Simulation time: 0 hr 16 min 30 sec) 
Heartbeat CPU 0 instructions: 370000001 cycles: 1039468519 heartbeat IPC: 0.287801 cumulative IPC: 0.270871 (Simulation time: 0 hr 16 min 58 sec) 
Heartbeat CPU 0 instructions: 380000000 cycles: 1075822123 heartbeat IPC: 0.275076 cumulative IPC: 0.271019 (Simulation time: 0 hr 17 min 26 sec) 
Heartbeat CPU 0 instructions: 390000000 cycles: 1111259331 heartbeat IPC: 0.282189 cumulative IPC: 0.27139 (Simulation time: 0 hr 17 min 54 sec) 
Heartbeat CPU 0 instructions: 400000002 cycles: 1146478421 heartbeat IPC: 0.283937 cumulative IPC: 0.27179 (Simulation time: 0 hr 18 min 22 sec) 
Heartbeat CPU 0 instructions: 410000002 cycles: 1182797449 heartbeat IPC: 0.275338 cumulative IPC: 0.271903 (Simulation time: 0 hr 18 min 50 sec) 
Heartbeat CPU 0 instructions: 420000000 cycles: 1217803861 heartbeat IPC: 0.285662 cumulative IPC: 0.272313 (Simulation time: 0 hr 19 min 18 sec) 
Heartbeat CPU 0 instructions: 430000000 cycles: 1253024239 heartbeat IPC: 0.283927 cumulative IPC: 0.272651 (Simulation time: 0 hr 19 min 45 sec) 
Heartbeat CPU 0 instructions: 440000000 cycles: 1290079344 heartbeat IPC: 0.269868 cumulative IPC: 0.272568 (Simulation time: 0 hr 20 min 14 sec) 
Heartbeat CPU 0 instructions: 450000001 cycles: 1326095889 heartbeat IPC: 0.27765 cumulative IPC: 0.272711 (Simulation time: 0 hr 20 min 43 sec) 
Heartbeat CPU 0 instructions: 460000000 cycles: 1363651161 heartbeat IPC: 0.266274 cumulative IPC: 0.272528 (Simulation time: 0 hr 21 min 12 sec) 
Heartbeat CPU 0 instructions: 470000000 cycles: 1400583829 heartbeat IPC: 0.270763 cumulative IPC: 0.27248 (Simulation time: 0 hr 21 min 40 sec) 
Heartbeat CPU 0 instructions: 480000003 cycles: 1435608736 heartbeat IPC: 0.285511 cumulative IPC: 0.272807 (Simulation time: 0 hr 22 min 9 sec) 
Heartbeat CPU 0 instructions: 490000000 cycles: 1472100291 heartbeat IPC: 0.274036 cumulative IPC: 0.272839 (Simulation time: 0 hr 22 min 37 sec) 
Heartbeat CPU 0 instructions: 500000003 cycles: 1507527904 heartbeat IPC: 0.282266 cumulative IPC: 0.273067 (Simulation time: 0 hr 23 min 5 sec) 
Heartbeat CPU 0 instructions: 510000001 cycles: 1545671756 heartbeat IPC: 0.262165 cumulative IPC: 0.27279 (Simulation time: 0 hr 23 min 34 sec) 
Heartbeat CPU 0 instructions: 520000002 cycles: 1582178034 heartbeat IPC: 0.273926 cumulative IPC: 0.272817 (Simulation time: 0 hr 24 min 2 sec) 
Heartbeat CPU 0 instructions: 530000003 cycles: 1620195609 heartbeat IPC: 0.263036 cumulative IPC: 0.272581 (Simulation time: 0 hr 24 min 31 sec) 
Heartbeat CPU 0 instructions: 540000000 cycles: 1656371394 heartbeat IPC: 0.276428 cumulative IPC: 0.272668 (Simulation time: 0 hr 24 min 59 sec) 
Heartbeat CPU 0 instructions: 550000000 cycles: 1693577319 heartbeat IPC: 0.268774 cumulative IPC: 0.27258 (Simulation time: 0 hr 25 min 27 sec) 
Heartbeat CPU 0 instructions: 560000002 cycles: 1730011432 heartbeat IPC: 0.274468 cumulative IPC: 0.272621 (Simulation time: 0 hr 25 min 55 sec) 
Heartbeat CPU 0 instructions: 570000000 cycles: 1766471347 heartbeat IPC: 0.274274 cumulative IPC: 0.272656 (Simulation time: 0 hr 26 min 23 sec) 
Heartbeat CPU 0 instructions: 580000002 cycles: 1804341916 heartbeat IPC: 0.264057 cumulative IPC: 0.272471 (Simulation time: 0 hr 26 min 52 sec) 
Heartbeat CPU 0 instructions: 590000001 cycles: 1841285980 heartbeat IPC: 0.270679 cumulative IPC: 0.272434 (Simulation time: 0 hr 27 min 19 sec) 
Heartbeat CPU 0 instructions: 600000000 cycles: 1878326552 heartbeat IPC: 0.269974 cumulative IPC: 0.272384 (Simulation time: 0 hr 27 min 48 sec) 
Heartbeat CPU 0 instructions: 610000000 cycles: 1913993424 heartbeat IPC: 0.280372 cumulative IPC: 0.272537 (Simulation time: 0 hr 28 min 16 sec) 
Heartbeat CPU 0 instructions: 620000000 cycles: 1952265130 heartbeat IPC: 0.26129 cumulative IPC: 0.272311 (Simulation time: 0 hr 28 min 46 sec) 
Heartbeat CPU 0 instructions: 630000002 cycles: 1989060161 heartbeat IPC: 0.271776 cumulative IPC: 0.272301 (Simulation time: 0 hr 29 min 14 sec) 
Heartbeat CPU 0 instructions: 640000001 cycles: 2027041002 heartbeat IPC: 0.263291 cumulative IPC: 0.272129 (Simulation time: 0 hr 29 min 44 sec) 
Heartbeat CPU 0 instructions: 650000000 cycles: 2064960884 heartbeat IPC: 0.263714 cumulative IPC: 0.271971 (Simulation time: 0 hr 30 min 12 sec) 
Heartbeat CPU 0 instructions: 660000000 cycles: 2101889409 heartbeat IPC: 0.270793 cumulative IPC: 0.27195 (Simulation time: 0 hr 30 min 41 sec) 
Heartbeat CPU 0 instructions: 670000000 cycles: 2140319822 heartbeat IPC: 0.260211 cumulative IPC: 0.271735 (Simulation time: 0 hr 31 min 10 sec) 
Heartbeat CPU 0 instructions: 680000002 cycles: 2177896546 heartbeat IPC: 0.266122 cumulative IPC: 0.271636 (Simulation time: 0 hr 31 min 39 sec) 
Heartbeat CPU 0 instructions: 690000000 cycles: 2215388532 heartbeat IPC: 0.266724 cumulative IPC: 0.271551 (Simulation time: 0 hr 32 min 8 sec) 
Heartbeat CPU 0 instructions: 700000000 cycles: 2248535154 heartbeat IPC: 0.30169 cumulative IPC: 0.272004 (Simulation time: 0 hr 32 min 36 sec) 
Heartbeat CPU 0 instructions: 710000001 cycles: 2278179947 heartbeat IPC: 0.337327 cumulative IPC: 0.27287 (Simulation time: 0 hr 33 min 2 sec) 
Heartbeat CPU 0 instructions: 720000001 cycles: 2305100882 heartbeat IPC: 0.371458 cumulative IPC: 0.274043 (Simulation time: 0 hr 33 min 26 sec) 
Heartbeat CPU 0 instructions: 730000000 cycles: 2338565231 heartbeat IPC: 0.298825 cumulative IPC: 0.274405 (Simulation time: 0 hr 33 min 54 sec) 
Heartbeat CPU 0 instructions: 740000000 cycles: 2373515569 heartbeat IPC: 0.28612 cumulative IPC: 0.27458 (Simulation time: 0 hr 34 min 22 sec) 
Heartbeat CPU 0 instructions: 750000000 cycles: 2408478856 heartbeat IPC: 0.286014 cumulative IPC: 0.274749 (Simulation time: 0 hr 34 min 50 sec) 
Heartbeat CPU 0 instructions: 760000002 cycles: 2445031740 heartbeat IPC: 0.273576 cumulative IPC: 0.274731 (Simulation time: 0 hr 35 min 18 sec) 
Heartbeat CPU 0 instructions: 770000000 cycles: 2482306294 heartbeat IPC: 0.268279 cumulative IPC: 0.274633 (Simulation time: 0 hr 35 min 48 sec) 
Heartbeat CPU 0 instructions: 780000002 cycles: 2519001827 heartbeat IPC: 0.272513 cumulative IPC: 0.274601 (Simulation time: 0 hr 36 min 16 sec) 
Heartbeat CPU 0 instructions: 790000003 cycles: 2556920396 heartbeat IPC: 0.263723 cumulative IPC: 0.274437 (Simulation time: 0 hr 36 min 46 sec) 
Heartbeat CPU 0 instructions: 800000002 cycles: 2593592702 heartbeat IPC: 0.272685 cumulative IPC: 0.274412 (Simulation time: 0 hr 37 min 15 sec) 
Heartbeat CPU 0 instructions: 810000002 cycles: 2628462524 heartbeat IPC: 0.286781 cumulative IPC: 0.274579 (Simulation time: 0 hr 37 min 42 sec) 
Heartbeat CPU 0 instructions: 820000000 cycles: 2665577059 heartbeat IPC: 0.269436 cumulative IPC: 0.274506 (Simulation time: 0 hr 38 min 10 sec) 
Heartbeat CPU 0 instructions: 830000003 cycles: 2701453052 heartbeat IPC: 0.278738 cumulative IPC: 0.274563 (Simulation time: 0 hr 38 min 39 sec) 
Heartbeat CPU 0 instructions: 840000000 cycles: 2738237410 heartbeat IPC: 0.271855 cumulative IPC: 0.274526 (Simulation time: 0 hr 39 min 8 sec) 
Heartbeat CPU 0 instructions: 850000000 cycles: 2775032682 heartbeat IPC: 0.271774 cumulative IPC: 0.274489 (Simulation time: 0 hr 39 min 36 sec) 
Heartbeat CPU 0 instructions: 860000003 cycles: 2811469340 heartbeat IPC: 0.274449 cumulative IPC: 0.274489 (Simulation time: 0 hr 40 min 4 sec) 
Heartbeat CPU 0 instructions: 870000002 cycles: 2848788078 heartbeat IPC: 0.267962 cumulative IPC: 0.274402 (Simulation time: 0 hr 40 min 33 sec) 
Heartbeat CPU 0 instructions: 880000000 cycles: 2885580868 heartbeat IPC: 0.271792 cumulative IPC: 0.274368 (Simulation time: 0 hr 41 min 1 sec) 
Heartbeat CPU 0 instructions: 890000000 cycles: 2923092868 heartbeat IPC: 0.266581 cumulative IPC: 0.274267 (Simulation time: 0 hr 41 min 30 sec) 
Heartbeat CPU 0 instructions: 900000001 cycles: 2960590543 heartbeat IPC: 0.266683 cumulative IPC: 0.274169 (Simulation time: 0 hr 41 min 58 sec) 
Heartbeat CPU 0 instructions: 910000000 cycles: 2997917884 heartbeat IPC: 0.2679 cumulative IPC: 0.27409 (Simulation time: 0 hr 42 min 27 sec) 
Heartbeat CPU 0 instructions: 920000003 cycles: 3035646983 heartbeat IPC: 0.265047 cumulative IPC: 0.273976 (Simulation time: 0 hr 42 min 55 sec) 
Heartbeat CPU 0 instructions: 930000000 cycles: 3074139939 heartbeat IPC: 0.259788 cumulative IPC: 0.273796 (Simulation time: 0 hr 43 min 24 sec) 
Heartbeat CPU 0 instructions: 940000003 cycles: 3111438250 heartbeat IPC: 0.268109 cumulative IPC: 0.273727 (Simulation time: 0 hr 43 min 52 sec) 
Heartbeat CPU 0 instructions: 950000003 cycles: 3147354966 heartbeat IPC: 0.278422 cumulative IPC: 0.273781 (Simulation time: 0 hr 44 min 20 sec) 
Heartbeat CPU 0 instructions: 960000001 cycles: 3185207456 heartbeat IPC: 0.264183 cumulative IPC: 0.273665 (Simulation time: 0 hr 44 min 49 sec) 
Heartbeat CPU 0 instructions: 970000003 cycles: 3221153239 heartbeat IPC: 0.278197 cumulative IPC: 0.273717 (Simulation time: 0 hr 45 min 17 sec) 
Heartbeat CPU 0 instructions: 980000002 cycles: 3258997052 heartbeat IPC: 0.264244 cumulative IPC: 0.273605 (Simulation time: 0 hr 45 min 45 sec) 
Heartbeat CPU 0 instructions: 990000000 cycles: 3295243380 heartbeat IPC: 0.27589 cumulative IPC: 0.273631 (Simulation time: 0 hr 46 min 13 sec) 
Heartbeat CPU 0 instructions: 1000000000 cycles: 3334768643 heartbeat IPC: 0.253003 cumulative IPC: 0.273383 (Simulation time: 0 hr 46 min 43 sec) 
Heartbeat CPU 0 instructions: 1010000000 cycles: 3369559033 heartbeat IPC: 0.287436 cumulative IPC: 0.27353 (Simulation time: 0 hr 47 min 10 sec) 
Heartbeat CPU 0 instructions: 1020000002 cycles: 3405944010 heartbeat IPC: 0.274839 cumulative IPC: 0.273544 (Simulation time: 0 hr 47 min 37 sec) 
Heartbeat CPU 0 instructions: 1030000001 cycles: 3445014373 heartbeat IPC: 0.255948 cumulative IPC: 0.273342 (Simulation time: 0 hr 48 min 6 sec) 
Heartbeat CPU 0 instructions: 1040000003 cycles: 3483028050 heartbeat IPC: 0.263063 cumulative IPC: 0.273229 (Simulation time: 0 hr 48 min 36 sec) 
Heartbeat CPU 0 instructions: 1050000000 cycles: 3520684058 heartbeat IPC: 0.265562 cumulative IPC: 0.273146 (Simulation time: 0 hr 49 min 4 sec) 
Heartbeat CPU 0 instructions: 1060000002 cycles: 3556723638 heartbeat IPC: 0.277473 cumulative IPC: 0.27319 (Simulation time: 0 hr 49 min 33 sec) 
Heartbeat CPU 0 instructions: 1070000003 cycles: 3592968068 heartbeat IPC: 0.275904 cumulative IPC: 0.273218 (Simulation time: 0 hr 50 min 1 sec) 
Heartbeat CPU 0 instructions: 1080000001 cycles: 3627408964 heartbeat IPC: 0.290352 cumulative IPC: 0.273382 (Simulation time: 0 hr 50 min 29 sec) 
Heartbeat CPU 0 instructions: 1090000000 cycles: 3660092733 heartbeat IPC: 0.305962 cumulative IPC: 0.273677 (Simulation time: 0 hr 50 min 56 sec) 
Heartbeat CPU 0 instructions: 1100000000 cycles: 3693465459 heartbeat IPC: 0.299646 cumulative IPC: 0.273914 (Simulation time: 0 hr 51 min 23 sec) 
Finished CPU 0 instructions: 1000000002 cycles: 3650780737 cumulative IPC: 0.273914 (Simulation time: 0 hr 51 min 23 sec) 

ChampSim completed all CPUs

Region of Interest Statistics

CPU 0 cumulative IPC: 0.273914 instructions: 1000000002 cycles: 3650780737
L1D TOTAL     ACCESS:  343666705  HIT:  318371991  MISS:   25294714
L1D LOAD      ACCESS:  190874236  HIT:  168755911  MISS:   22118325
L1D RFO       ACCESS:  152792469  HIT:  149616080  MISS:    3176389
L1D PREFETCH  ACCESS:          0  HIT:          0  MISS:          0
L1D WRITEBACK ACCESS:          0  HIT:          0  MISS:          0
L1D PREFETCH  REQUESTED:          0  ISSUED:          0  USEFUL:          0  USELESS:          0
L1D AVERAGE MISS LATENCY: 161.118 cycles
L1I TOTAL     ACCESS:  186021568  HIT:  185975877  MISS:      45691
L1I LOAD      ACCESS:  186021568  HIT:  185975877  MISS:      45691
L1I RFO       ACCESS:          0  HIT:          0  MISS:          0
L1I PREFETCH  ACCESS:          0  HIT:          0  MISS:          0
L1I WRITEBACK ACCESS:          0  HIT:          0  MISS:          0
L1I PREFETCH  REQUESTED:          0  ISSUED:          0  USEFUL:          0  USELESS:          0
L1I AVERAGE MISS LATENCY: 134.582 cycles
L2C TOTAL     ACCESS:   36177175  HIT:   14367910  MISS:   21809265
L2C LOAD      ACCESS:   22162943  HIT:    3389321  MISS:   18773622
L2C RFO       ACCESS:    3176349  HIT:     181627  MISS:    2994722
L2C PREFETCH  ACCESS:          0  HIT:          0  MISS:          0
L2C WRITEBACK ACCESS:   10837883  HIT:   10796962  MISS:      40921
L2C PREFETCH  REQUESTED:          0  ISSUED:          0  USEFUL:          0  USELESS:          0
L2C AVERAGE MISS LATENCY: 170.696 cycles
LLC TOTAL     ACCESS:   31198816  HIT:   11978829  MISS:   19219987
LLC LOAD      ACCESS:   18773570  HIT:    5042873  MISS:   13730697
LLC RFO       ACCESS:    2994720  HIT:     786102  MISS:    2208618
LLC PREFETCH  ACCESS:          0  HIT:          0  MISS:          0
LLC WRITEBACK ACCESS:    9430526  HIT:    6149854  MISS:    3280672
LLC PREFETCH  REQUESTED:          0  ISSUED:          0  USEFUL:          0  USELESS:          0
LLC AVERAGE MISS LATENCY: 144.874 cycles
Major fault: 0 Minor fault: 36042

DRAM Statistics
 CHANNEL 0
 RQ ROW_BUFFER_HIT:    2062554  ROW_BUFFER_MISS:   13876727
 DBUS_CONGESTED:    4139098
 WQ ROW_BUFFER_HIT:    1945002  ROW_BUFFER_MISS:    4469583  FULL:          0

 AVG_CONGESTED_CYCLE: 6

CPU 0 Branch Prediction Accuracy: 94.1527% MPKI: 14.1178 Average ROB Occupancy at Mispredict: 43.9649

Branch types
NOT_BRANCH: 758557651 75.8558%
BRANCH_DIRECT_JUMP: 19502182 1.95022%
BRANCH_INDIRECT: 2970500 0.29705%
BRANCH_CONDITIONAL: 159215241 15.9215%
BRANCH_DIRECT_CALL: 25720589 2.57206%
BRANCH_INDIRECT_CALL: 4156438 0.415644%
BRANCH_RETURN: 29877023 2.9877%
BRANCH_OTHER: 0 0%

