
*** ChampSim Multicore Out-of-Order Simulator ***

Warmup Instructions: 100000000
Simulation Instructions: 1000000000
Number of CPUs: 1
LLC sets: 2048
LLC ways: 16
Off-chip DRAM Size: 4096 MB Channels: 1 Width: 64-bit Data Rate: 3200 MT/s

CPU 0 runs /scratch/user/kevin.weston/dpc3-traces/473.champsimtrace.xz
CPU 0 Bimodal branch predictor
Initialize SHIP state
Assign rand_sets[0]: 454  LLC: 2048
rand_sets[0]: 454
Assign rand_sets[1]: 1662  LLC: 2048
rand_sets[1]: 1662
Assign rand_sets[2]: 1921  LLC: 2048
rand_sets[2]: 1921
Assign rand_sets[3]: 1131  LLC: 2048
rand_sets[3]: 1131
Assign rand_sets[4]: 331  LLC: 2048
rand_sets[4]: 331
Assign rand_sets[5]: 1531  LLC: 2048
rand_sets[5]: 1531
Assign rand_sets[6]: 482  LLC: 2048
rand_sets[6]: 482
Assign rand_sets[7]: 1275  LLC: 2048
rand_sets[7]: 1275
Assign rand_sets[8]: 1876  LLC: 2048
rand_sets[8]: 1876
Assign rand_sets[9]: 2038  LLC: 2048
rand_sets[9]: 2038
Assign rand_sets[10]: 701  LLC: 2048
rand_sets[10]: 701
Assign rand_sets[11]: 479  LLC: 2048
rand_sets[11]: 479
Assign rand_sets[12]: 892  LLC: 2048
rand_sets[12]: 892
Assign rand_sets[13]: 1820  LLC: 2048
rand_sets[13]: 1820
Assign rand_sets[14]: 1505  LLC: 2048
rand_sets[14]: 1505
Assign rand_sets[15]: 1159  LLC: 2048
rand_sets[15]: 1159
Assign rand_sets[16]: 513  LLC: 2048
rand_sets[16]: 513
Assign rand_sets[17]: 703  LLC: 2048
rand_sets[17]: 703
Assign rand_sets[18]: 561  LLC: 2048
rand_sets[18]: 561
Assign rand_sets[19]: 990  LLC: 2048
rand_sets[19]: 990
Assign rand_sets[20]: 342  LLC: 2048
rand_sets[20]: 342
Assign rand_sets[21]: 882  LLC: 2048
rand_sets[21]: 882
Assign rand_sets[22]: 15  LLC: 2048
rand_sets[22]: 15
Assign rand_sets[23]: 71  LLC: 2048
rand_sets[23]: 71
Assign rand_sets[24]: 1127  LLC: 2048
rand_sets[24]: 1127
Assign rand_sets[25]: 1382  LLC: 2048
rand_sets[25]: 1382
Assign rand_sets[26]: 647  LLC: 2048
rand_sets[26]: 647
Assign rand_sets[27]: 857  LLC: 2048
rand_sets[27]: 857
Assign rand_sets[28]: 1450  LLC: 2048
rand_sets[28]: 1450
Assign rand_sets[29]: 1160  LLC: 2048
rand_sets[29]: 1160
Assign rand_sets[30]: 1852  LLC: 2048
rand_sets[30]: 1852
Assign rand_sets[31]: 1881  LLC: 2048
rand_sets[31]: 1881
Assign rand_sets[32]: 1770  LLC: 2048
rand_sets[32]: 1770
Assign rand_sets[33]: 1622  LLC: 2048
rand_sets[33]: 1622
Assign rand_sets[34]: 275  LLC: 2048
rand_sets[34]: 275
Assign rand_sets[35]: 635  LLC: 2048
rand_sets[35]: 635
Assign rand_sets[36]: 466  LLC: 2048
rand_sets[36]: 466
Assign rand_sets[37]: 1413  LLC: 2048
rand_sets[37]: 1413
Assign rand_sets[38]: 417  LLC: 2048
rand_sets[38]: 417
Assign rand_sets[39]: 472  LLC: 2048
rand_sets[39]: 472
Assign rand_sets[40]: 1340  LLC: 2048
rand_sets[40]: 1340
Assign rand_sets[41]: 852  LLC: 2048
rand_sets[41]: 852
Assign rand_sets[42]: 1365  LLC: 2048
rand_sets[42]: 1365
Assign rand_sets[43]: 47  LLC: 2048
rand_sets[43]: 47
Assign rand_sets[44]: 823  LLC: 2048
rand_sets[44]: 823
Assign rand_sets[45]: 686  LLC: 2048
rand_sets[45]: 686
Assign rand_sets[46]: 1637  LLC: 2048
rand_sets[46]: 1637
Assign rand_sets[47]: 1115  LLC: 2048
rand_sets[47]: 1115
Assign rand_sets[48]: 986  LLC: 2048
rand_sets[48]: 986
Assign rand_sets[49]: 258  LLC: 2048
rand_sets[49]: 258
Assign rand_sets[50]: 633  LLC: 2048
rand_sets[50]: 633
Assign rand_sets[51]: 920  LLC: 2048
rand_sets[51]: 920
Assign rand_sets[52]: 204  LLC: 2048
rand_sets[52]: 204
Assign rand_sets[53]: 227  LLC: 2048
rand_sets[53]: 227
Assign rand_sets[54]: 1818  LLC: 2048
rand_sets[54]: 1818
Assign rand_sets[55]: 886  LLC: 2048
rand_sets[55]: 886
Assign rand_sets[56]: 1422  LLC: 2048
rand_sets[56]: 1422
Assign rand_sets[57]: 607  LLC: 2048
rand_sets[57]: 607
Assign rand_sets[58]: 217  LLC: 2048
rand_sets[58]: 217
Assign rand_sets[59]: 1945  LLC: 2048
rand_sets[59]: 1945
Assign rand_sets[60]: 143  LLC: 2048
rand_sets[60]: 143
Assign rand_sets[61]: 1311  LLC: 2048
rand_sets[61]: 1311
Assign rand_sets[62]: 319  LLC: 2048
rand_sets[62]: 319
Assign rand_sets[63]: 1846  LLC: 2048
rand_sets[63]: 1846
Assign rand_sets[64]: 238  LLC: 2048
rand_sets[64]: 238
Assign rand_sets[65]: 67  LLC: 2048
rand_sets[65]: 67
Assign rand_sets[66]: 1912  LLC: 2048
rand_sets[66]: 1912
Assign rand_sets[67]: 1613  LLC: 2048
rand_sets[67]: 1613
Assign rand_sets[68]: 1293  LLC: 2048
rand_sets[68]: 1293
Assign rand_sets[69]: 1018  LLC: 2048
rand_sets[69]: 1018
Assign rand_sets[70]: 1982  LLC: 2048
rand_sets[70]: 1982
Assign rand_sets[71]: 1702  LLC: 2048
rand_sets[71]: 1702
Assign rand_sets[72]: 1498  LLC: 2048
rand_sets[72]: 1498
Assign rand_sets[73]: 228  LLC: 2048
rand_sets[73]: 228
Assign rand_sets[74]: 1414  LLC: 2048
rand_sets[74]: 1414
Assign rand_sets[75]: 1166  LLC: 2048
rand_sets[75]: 1166
Assign rand_sets[76]: 732  LLC: 2048
rand_sets[76]: 732
Assign rand_sets[77]: 297  LLC: 2048
rand_sets[77]: 297
Assign rand_sets[78]: 1133  LLC: 2048
rand_sets[78]: 1133
Assign rand_sets[79]: 846  LLC: 2048
rand_sets[79]: 846
Assign rand_sets[80]: 767  LLC: 2048
rand_sets[80]: 767
Assign rand_sets[81]: 1878  LLC: 2048
rand_sets[81]: 1878
Assign rand_sets[82]: 993  LLC: 2048
rand_sets[82]: 993
Assign rand_sets[83]: 1392  LLC: 2048
rand_sets[83]: 1392
Assign rand_sets[84]: 1568  LLC: 2048
rand_sets[84]: 1568
Assign rand_sets[85]: 1787  LLC: 2048
rand_sets[85]: 1787
Assign rand_sets[86]: 399  LLC: 2048
rand_sets[86]: 399
Assign rand_sets[87]: 1201  LLC: 2048
rand_sets[87]: 1201
Assign rand_sets[88]: 856  LLC: 2048
rand_sets[88]: 856
Assign rand_sets[89]: 773  LLC: 2048
rand_sets[89]: 773
Assign rand_sets[90]: 1680  LLC: 2048
rand_sets[90]: 1680
Assign rand_sets[91]: 1477  LLC: 2048
rand_sets[91]: 1477
Assign rand_sets[92]: 9  LLC: 2048
rand_sets[92]: 9
Assign rand_sets[93]: 1500  LLC: 2048
rand_sets[93]: 1500
Assign rand_sets[94]: 851  LLC: 2048
rand_sets[94]: 851
Assign rand_sets[95]: 973  LLC: 2048
rand_sets[95]: 973
Assign rand_sets[96]: 938  LLC: 2048
rand_sets[96]: 938
Assign rand_sets[97]: 1851  LLC: 2048
rand_sets[97]: 1851
Assign rand_sets[98]: 1608  LLC: 2048
rand_sets[98]: 1608
Assign rand_sets[99]: 1945  LLC: 2048
Assign rand_sets[99]: 1106  LLC: 2048
rand_sets[99]: 1106
Assign rand_sets[100]: 979  LLC: 2048
rand_sets[100]: 979
Assign rand_sets[101]: 338  LLC: 2048
rand_sets[101]: 338
Assign rand_sets[102]: 1693  LLC: 2048
rand_sets[102]: 1693
Assign rand_sets[103]: 6  LLC: 2048
rand_sets[103]: 6
Assign rand_sets[104]: 671  LLC: 2048
rand_sets[104]: 671
Assign rand_sets[105]: 490  LLC: 2048
rand_sets[105]: 490
Assign rand_sets[106]: 1461  LLC: 2048
rand_sets[106]: 1461
Assign rand_sets[107]: 1730  LLC: 2048
rand_sets[107]: 1730
Assign rand_sets[108]: 1030  LLC: 2048
rand_sets[108]: 1030
Assign rand_sets[109]: 19  LLC: 2048
rand_sets[109]: 19
Assign rand_sets[110]: 920  LLC: 2048
Assign rand_sets[110]: 329  LLC: 2048
rand_sets[110]: 329
Assign rand_sets[111]: 1714  LLC: 2048
rand_sets[111]: 1714
Assign rand_sets[112]: 1  LLC: 2048
rand_sets[112]: 1
Assign rand_sets[113]: 1822  LLC: 2048
rand_sets[113]: 1822
Assign rand_sets[114]: 172  LLC: 2048
rand_sets[114]: 172
Assign rand_sets[115]: 1586  LLC: 2048
rand_sets[115]: 1586
Assign rand_sets[116]: 648  LLC: 2048
rand_sets[116]: 648
Assign rand_sets[117]: 1329  LLC: 2048
rand_sets[117]: 1329
Assign rand_sets[118]: 668  LLC: 2048
rand_sets[118]: 668
Assign rand_sets[119]: 1874  LLC: 2048
rand_sets[119]: 1874
Assign rand_sets[120]: 70  LLC: 2048
rand_sets[120]: 70
Assign rand_sets[121]: 661  LLC: 2048
rand_sets[121]: 661
Assign rand_sets[122]: 1649  LLC: 2048
rand_sets[122]: 1649
Assign rand_sets[123]: 1590  LLC: 2048
rand_sets[123]: 1590
Assign rand_sets[124]: 911  LLC: 2048
rand_sets[124]: 911
Assign rand_sets[125]: 1367  LLC: 2048
rand_sets[125]: 1367
Assign rand_sets[126]: 1782  LLC: 2048
rand_sets[126]: 1782
Assign rand_sets[127]: 569  LLC: 2048
rand_sets[127]: 569
Heartbeat CPU 0 instructions: 10000002 cycles: 3575326 heartbeat IPC: 2.79695 cumulative IPC: 2.79695 (Simulation time: 0 hr 0 min 23 sec) 
Heartbeat CPU 0 instructions: 20000002 cycles: 7111159 heartbeat IPC: 2.82819 cumulative IPC: 2.81248 (Simulation time: 0 hr 0 min 46 sec) 
Heartbeat CPU 0 instructions: 30000001 cycles: 10661946 heartbeat IPC: 2.81628 cumulative IPC: 2.81375 (Simulation time: 0 hr 1 min 9 sec) 
Heartbeat CPU 0 instructions: 40000001 cycles: 14226400 heartbeat IPC: 2.80548 cumulative IPC: 2.81167 (Simulation time: 0 hr 1 min 32 sec) 
Heartbeat CPU 0 instructions: 50000003 cycles: 17786863 heartbeat IPC: 2.80862 cumulative IPC: 2.81106 (Simulation time: 0 hr 1 min 55 sec) 
Heartbeat CPU 0 instructions: 60000000 cycles: 21333361 heartbeat IPC: 2.81968 cumulative IPC: 2.8125 (Simulation time: 0 hr 2 min 18 sec) 
Heartbeat CPU 0 instructions: 70000002 cycles: 24884199 heartbeat IPC: 2.81624 cumulative IPC: 2.81303 (Simulation time: 0 hr 2 min 41 sec) 
Heartbeat CPU 0 instructions: 80000001 cycles: 28442814 heartbeat IPC: 2.81008 cumulative IPC: 2.81266 (Simulation time: 0 hr 3 min 4 sec) 
Heartbeat CPU 0 instructions: 90000002 cycles: 32010094 heartbeat IPC: 2.80326 cumulative IPC: 2.81161 (Simulation time: 0 hr 3 min 27 sec) 
Heartbeat CPU 0 instructions: 100000001 cycles: 35552957 heartbeat IPC: 2.82258 cumulative IPC: 2.81271 (Simulation time: 0 hr 3 min 49 sec) 

Warmup complete CPU 0 instructions: 100000001 cycles: 35552957 (Simulation time: 0 hr 3 min 49 sec) 

Heartbeat CPU 0 instructions: 110000000 cycles: 65967069 heartbeat IPC: 0.328795 cumulative IPC: 0.328795 (Simulation time: 0 hr 4 min 7 sec) 
Heartbeat CPU 0 instructions: 120000000 cycles: 108473674 heartbeat IPC: 0.235258 cumulative IPC: 0.27427 (Simulation time: 0 hr 4 min 24 sec) 
Heartbeat CPU 0 instructions: 130000001 cycles: 152727772 heartbeat IPC: 0.225968 cumulative IPC: 0.256028 (Simulation time: 0 hr 4 min 42 sec) 
Heartbeat CPU 0 instructions: 140000000 cycles: 182738454 heartbeat IPC: 0.333215 cumulative IPC: 0.271766 (Simulation time: 0 hr 4 min 59 sec) 
Heartbeat CPU 0 instructions: 150000001 cycles: 209836720 heartbeat IPC: 0.369027 cumulative IPC: 0.286888 (Simulation time: 0 hr 5 min 16 sec) 
Heartbeat CPU 0 instructions: 160000000 cycles: 237554390 heartbeat IPC: 0.360781 cumulative IPC: 0.297028 (Simulation time: 0 hr 5 min 33 sec) 
Heartbeat CPU 0 instructions: 170000000 cycles: 271143031 heartbeat IPC: 0.29772 cumulative IPC: 0.297126 (Simulation time: 0 hr 5 min 51 sec) 
Heartbeat CPU 0 instructions: 180000000 cycles: 310076476 heartbeat IPC: 0.256849 cumulative IPC: 0.291414 (Simulation time: 0 hr 6 min 9 sec) 
Heartbeat CPU 0 instructions: 190000000 cycles: 351630958 heartbeat IPC: 0.240648 cumulative IPC: 0.28474 (Simulation time: 0 hr 6 min 27 sec) 
Heartbeat CPU 0 instructions: 200000001 cycles: 392433002 heartbeat IPC: 0.245086 cumulative IPC: 0.280206 (Simulation time: 0 hr 6 min 44 sec) 
Heartbeat CPU 0 instructions: 210000002 cycles: 425911032 heartbeat IPC: 0.298703 cumulative IPC: 0.281793 (Simulation time: 0 hr 7 min 2 sec) 
Heartbeat CPU 0 instructions: 220000000 cycles: 452706126 heartbeat IPC: 0.373203 cumulative IPC: 0.287664 (Simulation time: 0 hr 7 min 18 sec) 
Heartbeat CPU 0 instructions: 230000001 cycles: 480738977 heartbeat IPC: 0.356724 cumulative IPC: 0.292013 (Simulation time: 0 hr 7 min 35 sec) 
Heartbeat CPU 0 instructions: 240000000 cycles: 507269352 heartbeat IPC: 0.376926 cumulative IPC: 0.296788 (Simulation time: 0 hr 7 min 53 sec) 
Heartbeat CPU 0 instructions: 250000003 cycles: 537063936 heartbeat IPC: 0.335632 cumulative IPC: 0.299096 (Simulation time: 0 hr 8 min 10 sec) 
Heartbeat CPU 0 instructions: 260000002 cycles: 579376592 heartbeat IPC: 0.236336 cumulative IPC: 0.294213 (Simulation time: 0 hr 8 min 28 sec) 
Heartbeat CPU 0 instructions: 270000000 cycles: 615888641 heartbeat IPC: 0.273882 cumulative IPC: 0.292934 (Simulation time: 0 hr 8 min 45 sec) 
Heartbeat CPU 0 instructions: 280000003 cycles: 642830877 heartbeat IPC: 0.371165 cumulative IPC: 0.296405 (Simulation time: 0 hr 9 min 2 sec) 
Heartbeat CPU 0 instructions: 290000001 cycles: 675887805 heartbeat IPC: 0.302508 cumulative IPC: 0.29672 (Simulation time: 0 hr 9 min 20 sec) 
Heartbeat CPU 0 instructions: 300000002 cycles: 710607698 heartbeat IPC: 0.288019 cumulative IPC: 0.296272 (Simulation time: 0 hr 9 min 37 sec) 
Heartbeat CPU 0 instructions: 310000003 cycles: 748036412 heartbeat IPC: 0.267175 cumulative IPC: 0.294744 (Simulation time: 0 hr 9 min 54 sec) 
Heartbeat CPU 0 instructions: 320000001 cycles: 781182741 heartbeat IPC: 0.301692 cumulative IPC: 0.295053 (Simulation time: 0 hr 10 min 11 sec) 
Heartbeat CPU 0 instructions: 330000000 cycles: 808150383 heartbeat IPC: 0.370815 cumulative IPC: 0.297697 (Simulation time: 0 hr 10 min 28 sec) 
Heartbeat CPU 0 instructions: 340000003 cycles: 842293817 heartbeat IPC: 0.292882 cumulative IPC: 0.297493 (Simulation time: 0 hr 10 min 45 sec) 
Heartbeat CPU 0 instructions: 350000001 cycles: 877064734 heartbeat IPC: 0.287597 cumulative IPC: 0.297084 (Simulation time: 0 hr 11 min 2 sec) 
Heartbeat CPU 0 instructions: 360000000 cycles: 918273946 heartbeat IPC: 0.242664 cumulative IPC: 0.294544 (Simulation time: 0 hr 11 min 20 sec) 
Heartbeat CPU 0 instructions: 370000000 cycles: 956309735 heartbeat IPC: 0.26291 cumulative IPC: 0.293237 (Simulation time: 0 hr 11 min 38 sec) 
Heartbeat CPU 0 instructions: 380000000 cycles: 984081706 heartbeat IPC: 0.360075 cumulative IPC: 0.295194 (Simulation time: 0 hr 11 min 54 sec) 
Heartbeat CPU 0 instructions: 390000002 cycles: 1019630040 heartbeat IPC: 0.281307 cumulative IPC: 0.294692 (Simulation time: 0 hr 12 min 12 sec) 
Heartbeat CPU 0 instructions: 400000002 cycles: 1053523354 heartbeat IPC: 0.295043 cumulative IPC: 0.294704 (Simulation time: 0 hr 12 min 29 sec) 
Heartbeat CPU 0 instructions: 410000000 cycles: 1084888448 heartbeat IPC: 0.318826 cumulative IPC: 0.295425 (Simulation time: 0 hr 12 min 46 sec) 
Heartbeat CPU 0 instructions: 420000001 cycles: 1117194639 heartbeat IPC: 0.309538 cumulative IPC: 0.295847 (Simulation time: 0 hr 13 min 3 sec) 
Heartbeat CPU 0 instructions: 430000002 cycles: 1147354460 heartbeat IPC: 0.331567 cumulative IPC: 0.296816 (Simulation time: 0 hr 13 min 20 sec) 
Heartbeat CPU 0 instructions: 440000000 cycles: 1188594320 heartbeat IPC: 0.242484 cumulative IPC: 0.294872 (Simulation time: 0 hr 13 min 38 sec) 
Heartbeat CPU 0 instructions: 450000000 cycles: 1228586355 heartbeat IPC: 0.25005 cumulative IPC: 0.29337 (Simulation time: 0 hr 13 min 55 sec) 
Heartbeat CPU 0 instructions: 460000000 cycles: 1264719343 heartbeat IPC: 0.276755 cumulative IPC: 0.292881 (Simulation time: 0 hr 14 min 13 sec) 
Heartbeat CPU 0 instructions: 470000000 cycles: 1297203716 heartbeat IPC: 0.30784 cumulative IPC: 0.293267 (Simulation time: 0 hr 14 min 30 sec) 
Heartbeat CPU 0 instructions: 480000002 cycles: 1325747219 heartbeat IPC: 0.350342 cumulative IPC: 0.294529 (Simulation time: 0 hr 14 min 47 sec) 
Heartbeat CPU 0 instructions: 490000000 cycles: 1352695104 heartbeat IPC: 0.371087 cumulative IPC: 0.296096 (Simulation time: 0 hr 15 min 4 sec) 
Heartbeat CPU 0 instructions: 500000001 cycles: 1379454859 heartbeat IPC: 0.373696 cumulative IPC: 0.297641 (Simulation time: 0 hr 15 min 21 sec) 
Heartbeat CPU 0 instructions: 510000001 cycles: 1404362473 heartbeat IPC: 0.401484 cumulative IPC: 0.29953 (Simulation time: 0 hr 15 min 37 sec) 
Heartbeat CPU 0 instructions: 520000002 cycles: 1431488165 heartbeat IPC: 0.368654 cumulative IPC: 0.300874 (Simulation time: 0 hr 15 min 54 sec) 
Heartbeat CPU 0 instructions: 530000002 cycles: 1460543908 heartbeat IPC: 0.344166 cumulative IPC: 0.301756 (Simulation time: 0 hr 16 min 12 sec) 
Heartbeat CPU 0 instructions: 540000003 cycles: 1490315946 heartbeat IPC: 0.335886 cumulative IPC: 0.302455 (Simulation time: 0 hr 16 min 29 sec) 
Heartbeat CPU 0 instructions: 550000000 cycles: 1528726135 heartbeat IPC: 0.260348 cumulative IPC: 0.301372 (Simulation time: 0 hr 16 min 46 sec) 
Heartbeat CPU 0 instructions: 560000003 cycles: 1570479938 heartbeat IPC: 0.239499 cumulative IPC: 0.299689 (Simulation time: 0 hr 17 min 4 sec) 
Heartbeat CPU 0 instructions: 570000002 cycles: 1610847539 heartbeat IPC: 0.247723 cumulative IPC: 0.298357 (Simulation time: 0 hr 17 min 22 sec) 
Heartbeat CPU 0 instructions: 580000001 cycles: 1638573018 heartbeat IPC: 0.360679 cumulative IPC: 0.299435 (Simulation time: 0 hr 17 min 39 sec) 
Heartbeat CPU 0 instructions: 590000000 cycles: 1665721943 heartbeat IPC: 0.368339 cumulative IPC: 0.300582 (Simulation time: 0 hr 17 min 56 sec) 
Heartbeat CPU 0 instructions: 600000001 cycles: 1694123180 heartbeat IPC: 0.352097 cumulative IPC: 0.301464 (Simulation time: 0 hr 18 min 13 sec) 
Heartbeat CPU 0 instructions: 610000001 cycles: 1720919630 heartbeat IPC: 0.373184 cumulative IPC: 0.302605 (Simulation time: 0 hr 18 min 30 sec) 
Heartbeat CPU 0 instructions: 620000000 cycles: 1746417732 heartbeat IPC: 0.392186 cumulative IPC: 0.30394 (Simulation time: 0 hr 18 min 46 sec) 
Heartbeat CPU 0 instructions: 630000003 cycles: 1772124060 heartbeat IPC: 0.389009 cumulative IPC: 0.305199 (Simulation time: 0 hr 19 min 3 sec) 
Heartbeat CPU 0 instructions: 640000001 cycles: 1798849059 heartbeat IPC: 0.374181 cumulative IPC: 0.306245 (Simulation time: 0 hr 19 min 20 sec) 
Heartbeat CPU 0 instructions: 650000000 cycles: 1825409552 heartbeat IPC: 0.376499 cumulative IPC: 0.307287 (Simulation time: 0 hr 19 min 36 sec) 
Heartbeat CPU 0 instructions: 660000000 cycles: 1852019112 heartbeat IPC: 0.375805 cumulative IPC: 0.308291 (Simulation time: 0 hr 19 min 53 sec) 
Heartbeat CPU 0 instructions: 670000000 cycles: 1881133765 heartbeat IPC: 0.34347 cumulative IPC: 0.308846 (Simulation time: 0 hr 20 min 10 sec) 
Heartbeat CPU 0 instructions: 680000001 cycles: 1907076298 heartbeat IPC: 0.385467 cumulative IPC: 0.309908 (Simulation time: 0 hr 20 min 27 sec) 
Heartbeat CPU 0 instructions: 690000000 cycles: 1945340621 heartbeat IPC: 0.26134 cumulative IPC: 0.308935 (Simulation time: 0 hr 20 min 44 sec) 
Heartbeat CPU 0 instructions: 700000001 cycles: 1985583360 heartbeat IPC: 0.248492 cumulative IPC: 0.307688 (Simulation time: 0 hr 21 min 2 sec) 
Heartbeat CPU 0 instructions: 710000000 cycles: 2024046768 heartbeat IPC: 0.259987 cumulative IPC: 0.306765 (Simulation time: 0 hr 21 min 19 sec) 
Heartbeat CPU 0 instructions: 720000001 cycles: 2060126553 heartbeat IPC: 0.277164 cumulative IPC: 0.306237 (Simulation time: 0 hr 21 min 36 sec) 
Heartbeat CPU 0 instructions: 730000001 cycles: 2102562851 heartbeat IPC: 0.235647 cumulative IPC: 0.304788 (Simulation time: 0 hr 21 min 54 sec) 
Heartbeat CPU 0 instructions: 740000000 cycles: 2140800943 heartbeat IPC: 0.261519 cumulative IPC: 0.304002 (Simulation time: 0 hr 22 min 12 sec) 
Heartbeat CPU 0 instructions: 750000000 cycles: 2177322074 heartbeat IPC: 0.273814 cumulative IPC: 0.303487 (Simulation time: 0 hr 22 min 29 sec) 
Heartbeat CPU 0 instructions: 760000001 cycles: 2218359981 heartbeat IPC: 0.243677 cumulative IPC: 0.302363 (Simulation time: 0 hr 22 min 46 sec) 
Heartbeat CPU 0 instructions: 770000000 cycles: 2262694813 heartbeat IPC: 0.225556 cumulative IPC: 0.300834 (Simulation time: 0 hr 23 min 4 sec) 
Heartbeat CPU 0 instructions: 780000000 cycles: 2305804583 heartbeat IPC: 0.231966 cumulative IPC: 0.299526 (Simulation time: 0 hr 23 min 22 sec) 
Heartbeat CPU 0 instructions: 790000001 cycles: 2349906287 heartbeat IPC: 0.226749 cumulative IPC: 0.298139 (Simulation time: 0 hr 23 min 40 sec) 
Heartbeat CPU 0 instructions: 800000000 cycles: 2378116031 heartbeat IPC: 0.354487 cumulative IPC: 0.298818 (Simulation time: 0 hr 23 min 57 sec) 
Heartbeat CPU 0 instructions: 810000000 cycles: 2409423213 heartbeat IPC: 0.319416 cumulative IPC: 0.29909 (Simulation time: 0 hr 24 min 14 sec) 
Heartbeat CPU 0 instructions: 820000001 cycles: 2434986806 heartbeat IPC: 0.391181 cumulative IPC: 0.300071 (Simulation time: 0 hr 24 min 31 sec) 
Heartbeat CPU 0 instructions: 830000000 cycles: 2462756246 heartbeat IPC: 0.360108 cumulative IPC: 0.300758 (Simulation time: 0 hr 24 min 48 sec) 
Heartbeat CPU 0 instructions: 840000000 cycles: 2491046218 heartbeat IPC: 0.353482 cumulative IPC: 0.301365 (Simulation time: 0 hr 25 min 5 sec) 
Heartbeat CPU 0 instructions: 850000002 cycles: 2526178236 heartbeat IPC: 0.284641 cumulative IPC: 0.301129 (Simulation time: 0 hr 25 min 22 sec) 
Heartbeat CPU 0 instructions: 860000000 cycles: 2555328774 heartbeat IPC: 0.343047 cumulative IPC: 0.301614 (Simulation time: 0 hr 25 min 39 sec) 
Heartbeat CPU 0 instructions: 870000001 cycles: 2586810500 heartbeat IPC: 0.317645 cumulative IPC: 0.301812 (Simulation time: 0 hr 25 min 57 sec) 
Heartbeat CPU 0 instructions: 880000000 cycles: 2612350858 heartbeat IPC: 0.391537 cumulative IPC: 0.302701 (Simulation time: 0 hr 26 min 13 sec) 
Heartbeat CPU 0 instructions: 890000001 cycles: 2639262825 heartbeat IPC: 0.371582 cumulative IPC: 0.303413 (Simulation time: 0 hr 26 min 30 sec) 
Heartbeat CPU 0 instructions: 900000002 cycles: 2667258091 heartbeat IPC: 0.357203 cumulative IPC: 0.303985 (Simulation time: 0 hr 26 min 47 sec) 
Heartbeat CPU 0 instructions: 910000000 cycles: 2693199231 heartbeat IPC: 0.385488 cumulative IPC: 0.304781 (Simulation time: 0 hr 27 min 4 sec) 
Heartbeat CPU 0 instructions: 920000000 cycles: 2719909536 heartbeat IPC: 0.374387 cumulative IPC: 0.305474 (Simulation time: 0 hr 27 min 21 sec) 
Heartbeat CPU 0 instructions: 930000000 cycles: 2748523793 heartbeat IPC: 0.349476 cumulative IPC: 0.305938 (Simulation time: 0 hr 27 min 38 sec) 
Heartbeat CPU 0 instructions: 940000003 cycles: 2779019098 heartbeat IPC: 0.327919 cumulative IPC: 0.306182 (Simulation time: 0 hr 27 min 55 sec) 
Heartbeat CPU 0 instructions: 950000003 cycles: 2824835742 heartbeat IPC: 0.218261 cumulative IPC: 0.304738 (Simulation time: 0 hr 28 min 13 sec) 
Heartbeat CPU 0 instructions: 960000003 cycles: 2870537194 heartbeat IPC: 0.218811 cumulative IPC: 0.303353 (Simulation time: 0 hr 28 min 32 sec) 
Heartbeat CPU 0 instructions: 970000001 cycles: 2916865884 heartbeat IPC: 0.215849 cumulative IPC: 0.301946 (Simulation time: 0 hr 28 min 50 sec) 
Heartbeat CPU 0 instructions: 980000003 cycles: 2964090654 heartbeat IPC: 0.211753 cumulative IPC: 0.300491 (Simulation time: 0 hr 29 min 8 sec) 
Heartbeat CPU 0 instructions: 990000000 cycles: 3009776377 heartbeat IPC: 0.218887 cumulative IPC: 0.299238 (Simulation time: 0 hr 29 min 26 sec) 
Heartbeat CPU 0 instructions: 1000000000 cycles: 3054481583 heartbeat IPC: 0.223688 cumulative IPC: 0.298119 (Simulation time: 0 hr 29 min 44 sec) 
Heartbeat CPU 0 instructions: 1010000003 cycles: 3103007683 heartbeat IPC: 0.206075 cumulative IPC: 0.296663 (Simulation time: 0 hr 30 min 3 sec) 
Heartbeat CPU 0 instructions: 1020000000 cycles: 3137234564 heartbeat IPC: 0.292168 cumulative IPC: 0.296613 (Simulation time: 0 hr 30 min 20 sec) 
Heartbeat CPU 0 instructions: 1030000000 cycles: 3169798810 heartbeat IPC: 0.307085 cumulative IPC: 0.296722 (Simulation time: 0 hr 30 min 38 sec) 
Heartbeat CPU 0 instructions: 1040000000 cycles: 3209212826 heartbeat IPC: 0.253717 cumulative IPC: 0.296188 (Simulation time: 0 hr 30 min 56 sec) 
Heartbeat CPU 0 instructions: 1050000000 cycles: 3238088882 heartbeat IPC: 0.346308 cumulative IPC: 0.29664 (Simulation time: 0 hr 31 min 13 sec) 
Heartbeat CPU 0 instructions: 1060000003 cycles: 3264090749 heartbeat IPC: 0.384588 cumulative IPC: 0.297348 (Simulation time: 0 hr 31 min 30 sec) 
Heartbeat CPU 0 instructions: 1070000000 cycles: 3290992384 heartbeat IPC: 0.371725 cumulative IPC: 0.297963 (Simulation time: 0 hr 31 min 46 sec) 
Heartbeat CPU 0 instructions: 1080000000 cycles: 3322123562 heartbeat IPC: 0.321221 cumulative IPC: 0.298183 (Simulation time: 0 hr 32 min 4 sec) 
Heartbeat CPU 0 instructions: 1090000001 cycles: 3359937531 heartbeat IPC: 0.264453 cumulative IPC: 0.297799 (Simulation time: 0 hr 32 min 22 sec) 
Heartbeat CPU 0 instructions: 1100000000 cycles: 3398409764 heartbeat IPC: 0.259928 cumulative IPC: 0.297366 (Simulation time: 0 hr 32 min 39 sec) 
Finished CPU 0 instructions: 1000000000 cycles: 3362856814 cumulative IPC: 0.297366 (Simulation time: 0 hr 32 min 39 sec) 

ChampSim completed all CPUs

Region of Interest Statistics

CPU 0 cumulative IPC: 0.297366 instructions: 1000000000 cycles: 3362856814
L1D TOTAL     ACCESS:  258658892  HIT:  229033632  MISS:   29625260
L1D LOAD      ACCESS:  216212248  HIT:  187035043  MISS:   29177205
L1D RFO       ACCESS:   42446644  HIT:   41998589  MISS:     448055
L1D PREFETCH  ACCESS:          0  HIT:          0  MISS:          0
L1D WRITEBACK ACCESS:          0  HIT:          0  MISS:          0
L1D PREFETCH  REQUESTED:          0  ISSUED:          0  USEFUL:          0  USELESS:          0
L1D AVERAGE MISS LATENCY: 59.0469 cycles
L1I TOTAL     ACCESS:  197682624  HIT:  197682612  MISS:         12
L1I LOAD      ACCESS:  197682624  HIT:  197682612  MISS:         12
L1I RFO       ACCESS:          0  HIT:          0  MISS:          0
L1I PREFETCH  ACCESS:          0  HIT:          0  MISS:          0
L1I WRITEBACK ACCESS:          0  HIT:          0  MISS:          0
L1I PREFETCH  REQUESTED:          0  ISSUED:          0  USEFUL:          0  USELESS:          0
L1I AVERAGE MISS LATENCY: 226.75 cycles
L2C TOTAL     ACCESS:   39304149  HIT:   18250928  MISS:   21053221
L2C LOAD      ACCESS:   29176619  HIT:    8286676  MISS:   20889943
L2C RFO       ACCESS:     447977  HIT:     285962  MISS:     162015
L2C PREFETCH  ACCESS:          0  HIT:          0  MISS:          0
L2C WRITEBACK ACCESS:    9679553  HIT:    9678290  MISS:       1263
L2C PREFETCH  REQUESTED:          0  ISSUED:          0  USEFUL:          0  USELESS:          0
L2C AVERAGE MISS LATENCY: 61.5689 cycles
LLC TOTAL     ACCESS:   28113976  HIT:   25644270  MISS:    2469706
LLC LOAD      ACCESS:   20889259  HIT:   18516332  MISS:    2372927
LLC RFO       ACCESS:     162006  HIT:     159297  MISS:       2709
LLC PREFETCH  ACCESS:          0  HIT:          0  MISS:          0
LLC WRITEBACK ACCESS:    7062711  HIT:    6968641  MISS:      94070
LLC PREFETCH  REQUESTED:          0  ISSUED:          0  USEFUL:          0  USELESS:          0
LLC AVERAGE MISS LATENCY: 167.764 cycles
Major fault: 0 Minor fault: 6231

DRAM Statistics
 CHANNEL 0
 RQ ROW_BUFFER_HIT:     322445  ROW_BUFFER_MISS:    2053146
 DBUS_CONGESTED:      82424
 WQ ROW_BUFFER_HIT:      38708  ROW_BUFFER_MISS:    1395751  FULL:          0

 AVG_CONGESTED_CYCLE: 5

CPU 0 Branch Prediction Accuracy: 72.3402% MPKI: 52.2267 Average ROB Occupancy at Mispredict: 4.94751

Branch types
NOT_BRANCH: 811181313 81.1181%
BRANCH_DIRECT_JUMP: 63895 0.0063895%
BRANCH_INDIRECT: 0 0%
BRANCH_CONDITIONAL: 188708919 18.8709%
BRANCH_DIRECT_CALL: 22746 0.0022746%
BRANCH_INDIRECT_CALL: 0 0%
BRANCH_RETURN: 22746 0.0022746%
BRANCH_OTHER: 0 0%

