
*** ChampSim Multicore Out-of-Order Simulator ***

Warmup Instructions: 100000000
Simulation Instructions: 1000000000
Number of CPUs: 1
LLC sets: 2048
LLC ways: 16
Off-chip DRAM Size: 4096 MB Channels: 1 Width: 64-bit Data Rate: 3200 MT/s

CPU 0 runs /scratch/user/kevin.weston/dpc3-traces/473.champsimtrace.xz
CPU 0 Bimodal branch predictor
Heartbeat CPU 0 instructions: 10000002 cycles: 3575405 heartbeat IPC: 2.79689 cumulative IPC: 2.79689 (Simulation time: 0 hr 0 min 27 sec) 
Heartbeat CPU 0 instructions: 20000002 cycles: 7111161 heartbeat IPC: 2.82825 cumulative IPC: 2.81248 (Simulation time: 0 hr 0 min 52 sec) 
Heartbeat CPU 0 instructions: 30000001 cycles: 10662011 heartbeat IPC: 2.81623 cumulative IPC: 2.81373 (Simulation time: 0 hr 1 min 19 sec) 
Heartbeat CPU 0 instructions: 40000001 cycles: 14226474 heartbeat IPC: 2.80547 cumulative IPC: 2.81166 (Simulation time: 0 hr 1 min 45 sec) 
Heartbeat CPU 0 instructions: 50000003 cycles: 17786883 heartbeat IPC: 2.80867 cumulative IPC: 2.81106 (Simulation time: 0 hr 2 min 11 sec) 
Heartbeat CPU 0 instructions: 60000000 cycles: 21333324 heartbeat IPC: 2.81973 cumulative IPC: 2.8125 (Simulation time: 0 hr 2 min 37 sec) 
Heartbeat CPU 0 instructions: 70000002 cycles: 24884077 heartbeat IPC: 2.8163 cumulative IPC: 2.81304 (Simulation time: 0 hr 3 min 3 sec) 
Heartbeat CPU 0 instructions: 80000001 cycles: 28442566 heartbeat IPC: 2.81018 cumulative IPC: 2.81269 (Simulation time: 0 hr 3 min 30 sec) 
Heartbeat CPU 0 instructions: 90000001 cycles: 32009958 heartbeat IPC: 2.80317 cumulative IPC: 2.81163 (Simulation time: 0 hr 3 min 56 sec) 
Heartbeat CPU 0 instructions: 100000001 cycles: 35552773 heartbeat IPC: 2.82261 cumulative IPC: 2.81272 (Simulation time: 0 hr 4 min 22 sec) 

Warmup complete CPU 0 instructions: 100000001 cycles: 35552773 (Simulation time: 0 hr 4 min 22 sec) 

Heartbeat CPU 0 instructions: 110000000 cycles: 65864323 heartbeat IPC: 0.329907 cumulative IPC: 0.329907 (Simulation time: 0 hr 4 min 42 sec) 
Heartbeat CPU 0 instructions: 120000000 cycles: 108372058 heartbeat IPC: 0.235251 cumulative IPC: 0.274653 (Simulation time: 0 hr 5 min 2 sec) 
Heartbeat CPU 0 instructions: 130000001 cycles: 152530466 heartbeat IPC: 0.226457 cumulative IPC: 0.256459 (Simulation time: 0 hr 5 min 22 sec) 
Heartbeat CPU 0 instructions: 140000000 cycles: 182612220 heartbeat IPC: 0.332427 cumulative IPC: 0.271999 (Simulation time: 0 hr 5 min 42 sec) 
Heartbeat CPU 0 instructions: 150000001 cycles: 209748102 heartbeat IPC: 0.368516 cumulative IPC: 0.287034 (Simulation time: 0 hr 6 min 1 sec) 
Heartbeat CPU 0 instructions: 160000000 cycles: 237409264 heartbeat IPC: 0.361518 cumulative IPC: 0.297241 (Simulation time: 0 hr 6 min 20 sec) 
Heartbeat CPU 0 instructions: 170000000 cycles: 270971368 heartbeat IPC: 0.297955 cumulative IPC: 0.297343 (Simulation time: 0 hr 6 min 40 sec) 
Heartbeat CPU 0 instructions: 180000000 cycles: 309793452 heartbeat IPC: 0.257585 cumulative IPC: 0.291715 (Simulation time: 0 hr 7 min 0 sec) 
Heartbeat CPU 0 instructions: 190000000 cycles: 351252440 heartbeat IPC: 0.241202 cumulative IPC: 0.285081 (Simulation time: 0 hr 7 min 20 sec) 
Heartbeat CPU 0 instructions: 200000001 cycles: 392002610 heartbeat IPC: 0.245398 cumulative IPC: 0.280544 (Simulation time: 0 hr 7 min 40 sec) 
Heartbeat CPU 0 instructions: 210000002 cycles: 425705553 heartbeat IPC: 0.29671 cumulative IPC: 0.281941 (Simulation time: 0 hr 8 min 0 sec) 
Heartbeat CPU 0 instructions: 220000000 cycles: 452442727 heartbeat IPC: 0.374011 cumulative IPC: 0.287846 (Simulation time: 0 hr 8 min 19 sec) 
Heartbeat CPU 0 instructions: 230000001 cycles: 480464485 heartbeat IPC: 0.356866 cumulative IPC: 0.292193 (Simulation time: 0 hr 8 min 38 sec) 
Heartbeat CPU 0 instructions: 240000000 cycles: 506904209 heartbeat IPC: 0.378219 cumulative IPC: 0.297018 (Simulation time: 0 hr 8 min 58 sec) 
Heartbeat CPU 0 instructions: 250000003 cycles: 536603123 heartbeat IPC: 0.336713 cumulative IPC: 0.299371 (Simulation time: 0 hr 9 min 17 sec) 
Heartbeat CPU 0 instructions: 260000002 cycles: 578858623 heartbeat IPC: 0.236656 cumulative IPC: 0.294493 (Simulation time: 0 hr 9 min 37 sec) 
Heartbeat CPU 0 instructions: 270000000 cycles: 615345136 heartbeat IPC: 0.274074 cumulative IPC: 0.293208 (Simulation time: 0 hr 9 min 57 sec) 
Heartbeat CPU 0 instructions: 280000003 cycles: 642098578 heartbeat IPC: 0.373784 cumulative IPC: 0.296762 (Simulation time: 0 hr 10 min 16 sec) 
Heartbeat CPU 0 instructions: 290000001 cycles: 675329621 heartbeat IPC: 0.300923 cumulative IPC: 0.296979 (Simulation time: 0 hr 10 min 36 sec) 
Heartbeat CPU 0 instructions: 300000002 cycles: 709991321 heartbeat IPC: 0.288503 cumulative IPC: 0.296543 (Simulation time: 0 hr 10 min 55 sec) 
Heartbeat CPU 0 instructions: 310000003 cycles: 747369526 heartbeat IPC: 0.267536 cumulative IPC: 0.29502 (Simulation time: 0 hr 11 min 15 sec) 
Heartbeat CPU 0 instructions: 320000001 cycles: 780596896 heartbeat IPC: 0.300957 cumulative IPC: 0.295285 (Simulation time: 0 hr 11 min 34 sec) 
Heartbeat CPU 0 instructions: 330000000 cycles: 807614666 heartbeat IPC: 0.370127 cumulative IPC: 0.297904 (Simulation time: 0 hr 11 min 53 sec) 
Heartbeat CPU 0 instructions: 340000003 cycles: 841755371 heartbeat IPC: 0.292906 cumulative IPC: 0.297692 (Simulation time: 0 hr 12 min 13 sec) 
Heartbeat CPU 0 instructions: 350000001 cycles: 876488054 heartbeat IPC: 0.287913 cumulative IPC: 0.297288 (Simulation time: 0 hr 12 min 32 sec) 
Heartbeat CPU 0 instructions: 360000000 cycles: 917600737 heartbeat IPC: 0.243234 cumulative IPC: 0.294769 (Simulation time: 0 hr 12 min 52 sec) 
Heartbeat CPU 0 instructions: 370000000 cycles: 955716620 heartbeat IPC: 0.262358 cumulative IPC: 0.293426 (Simulation time: 0 hr 13 min 12 sec) 
Heartbeat CPU 0 instructions: 380000000 cycles: 983457316 heartbeat IPC: 0.360481 cumulative IPC: 0.295388 (Simulation time: 0 hr 13 min 31 sec) 
Heartbeat CPU 0 instructions: 390000002 cycles: 1018961963 heartbeat IPC: 0.281653 cumulative IPC: 0.294893 (Simulation time: 0 hr 13 min 51 sec) 
Heartbeat CPU 0 instructions: 400000002 cycles: 1053062460 heartbeat IPC: 0.293251 cumulative IPC: 0.294837 (Simulation time: 0 hr 14 min 10 sec) 
Heartbeat CPU 0 instructions: 410000000 cycles: 1084469511 heartbeat IPC: 0.3184 cumulative IPC: 0.295543 (Simulation time: 0 hr 14 min 30 sec) 
Heartbeat CPU 0 instructions: 420000001 cycles: 1116735245 heartbeat IPC: 0.309926 cumulative IPC: 0.295972 (Simulation time: 0 hr 14 min 49 sec) 
Heartbeat CPU 0 instructions: 430000002 cycles: 1146774598 heartbeat IPC: 0.332897 cumulative IPC: 0.29697 (Simulation time: 0 hr 15 min 9 sec) 
Heartbeat CPU 0 instructions: 440000000 cycles: 1188011837 heartbeat IPC: 0.242499 cumulative IPC: 0.295021 (Simulation time: 0 hr 15 min 29 sec) 
Heartbeat CPU 0 instructions: 450000000 cycles: 1228023411 heartbeat IPC: 0.249928 cumulative IPC: 0.293508 (Simulation time: 0 hr 15 min 48 sec) 
Heartbeat CPU 0 instructions: 460000000 cycles: 1264198348 heartbeat IPC: 0.276434 cumulative IPC: 0.293006 (Simulation time: 0 hr 16 min 8 sec) 
Heartbeat CPU 0 instructions: 470000000 cycles: 1296758846 heartbeat IPC: 0.307121 cumulative IPC: 0.29337 (Simulation time: 0 hr 16 min 28 sec) 
Heartbeat CPU 0 instructions: 480000002 cycles: 1325236407 heartbeat IPC: 0.351154 cumulative IPC: 0.294646 (Simulation time: 0 hr 16 min 47 sec) 
Heartbeat CPU 0 instructions: 490000000 cycles: 1352111133 heartbeat IPC: 0.372097 cumulative IPC: 0.296227 (Simulation time: 0 hr 17 min 6 sec) 
Heartbeat CPU 0 instructions: 500000001 cycles: 1378698850 heartbeat IPC: 0.376114 cumulative IPC: 0.297808 (Simulation time: 0 hr 17 min 25 sec) 
Heartbeat CPU 0 instructions: 510000001 cycles: 1403459026 heartbeat IPC: 0.403874 cumulative IPC: 0.299728 (Simulation time: 0 hr 17 min 44 sec) 
Heartbeat CPU 0 instructions: 520000002 cycles: 1430488214 heartbeat IPC: 0.36997 cumulative IPC: 0.301089 (Simulation time: 0 hr 18 min 3 sec) 
Heartbeat CPU 0 instructions: 530000002 cycles: 1459575063 heartbeat IPC: 0.343798 cumulative IPC: 0.301962 (Simulation time: 0 hr 18 min 22 sec) 
Heartbeat CPU 0 instructions: 540000003 cycles: 1489210994 heartbeat IPC: 0.337428 cumulative IPC: 0.302685 (Simulation time: 0 hr 18 min 41 sec) 
Heartbeat CPU 0 instructions: 550000000 cycles: 1527533462 heartbeat IPC: 0.260943 cumulative IPC: 0.301612 (Simulation time: 0 hr 19 min 1 sec) 
Heartbeat CPU 0 instructions: 560000003 cycles: 1569200377 heartbeat IPC: 0.239999 cumulative IPC: 0.299939 (Simulation time: 0 hr 19 min 21 sec) 
Heartbeat CPU 0 instructions: 570000002 cycles: 1609443784 heartbeat IPC: 0.248488 cumulative IPC: 0.298623 (Simulation time: 0 hr 19 min 41 sec) 
Heartbeat CPU 0 instructions: 580000001 cycles: 1637101180 heartbeat IPC: 0.361567 cumulative IPC: 0.29971 (Simulation time: 0 hr 20 min 1 sec) 
Heartbeat CPU 0 instructions: 590000000 cycles: 1664215468 heartbeat IPC: 0.368809 cumulative IPC: 0.30086 (Simulation time: 0 hr 20 min 20 sec) 
Heartbeat CPU 0 instructions: 600000001 cycles: 1692633708 heartbeat IPC: 0.351887 cumulative IPC: 0.301735 (Simulation time: 0 hr 20 min 39 sec) 
Heartbeat CPU 0 instructions: 610000001 cycles: 1719426513 heartbeat IPC: 0.373235 cumulative IPC: 0.302873 (Simulation time: 0 hr 20 min 58 sec) 
Heartbeat CPU 0 instructions: 620000000 cycles: 1744954569 heartbeat IPC: 0.391726 cumulative IPC: 0.3042 (Simulation time: 0 hr 21 min 17 sec) 
Heartbeat CPU 0 instructions: 630000003 cycles: 1770576365 heartbeat IPC: 0.390293 cumulative IPC: 0.305471 (Simulation time: 0 hr 21 min 36 sec) 
Heartbeat CPU 0 instructions: 640000001 cycles: 1797257731 heartbeat IPC: 0.374793 cumulative IPC: 0.306521 (Simulation time: 0 hr 21 min 55 sec) 
Heartbeat CPU 0 instructions: 650000000 cycles: 1823757863 heartbeat IPC: 0.377357 cumulative IPC: 0.307571 (Simulation time: 0 hr 22 min 14 sec) 
Heartbeat CPU 0 instructions: 660000000 cycles: 1850215843 heartbeat IPC: 0.377958 cumulative IPC: 0.308597 (Simulation time: 0 hr 22 min 33 sec) 
Heartbeat CPU 0 instructions: 670000000 cycles: 1879194992 heartbeat IPC: 0.345076 cumulative IPC: 0.309171 (Simulation time: 0 hr 22 min 52 sec) 
Heartbeat CPU 0 instructions: 680000001 cycles: 1905147770 heartbeat IPC: 0.385315 cumulative IPC: 0.310228 (Simulation time: 0 hr 23 min 11 sec) 
Heartbeat CPU 0 instructions: 690000000 cycles: 1943316335 heartbeat IPC: 0.261996 cumulative IPC: 0.309263 (Simulation time: 0 hr 23 min 31 sec) 
Heartbeat CPU 0 instructions: 700000001 cycles: 1983633828 heartbeat IPC: 0.248031 cumulative IPC: 0.307995 (Simulation time: 0 hr 23 min 50 sec) 
Heartbeat CPU 0 instructions: 710000000 cycles: 2022172078 heartbeat IPC: 0.259482 cumulative IPC: 0.307054 (Simulation time: 0 hr 24 min 10 sec) 
Heartbeat CPU 0 instructions: 720000001 cycles: 2058184305 heartbeat IPC: 0.277683 cumulative IPC: 0.306531 (Simulation time: 0 hr 24 min 30 sec) 
Heartbeat CPU 0 instructions: 730000001 cycles: 2100520358 heartbeat IPC: 0.236205 cumulative IPC: 0.30509 (Simulation time: 0 hr 24 min 49 sec) 
Heartbeat CPU 0 instructions: 740000000 cycles: 2138725363 heartbeat IPC: 0.261746 cumulative IPC: 0.304302 (Simulation time: 0 hr 25 min 9 sec) 
Heartbeat CPU 0 instructions: 750000000 cycles: 2175158155 heartbeat IPC: 0.274478 cumulative IPC: 0.303794 (Simulation time: 0 hr 25 min 29 sec) 
Heartbeat CPU 0 instructions: 760000001 cycles: 2216173566 heartbeat IPC: 0.243811 cumulative IPC: 0.302666 (Simulation time: 0 hr 25 min 48 sec) 
Heartbeat CPU 0 instructions: 770000000 cycles: 2260732901 heartbeat IPC: 0.22442 cumulative IPC: 0.301099 (Simulation time: 0 hr 26 min 8 sec) 
Heartbeat CPU 0 instructions: 780000000 cycles: 2303718457 heartbeat IPC: 0.232636 cumulative IPC: 0.299802 (Simulation time: 0 hr 26 min 28 sec) 
Heartbeat CPU 0 instructions: 790000001 cycles: 2347657306 heartbeat IPC: 0.227589 cumulative IPC: 0.298429 (Simulation time: 0 hr 26 min 48 sec) 
Heartbeat CPU 0 instructions: 800000000 cycles: 2375851115 heartbeat IPC: 0.354688 cumulative IPC: 0.299107 (Simulation time: 0 hr 27 min 7 sec) 
Heartbeat CPU 0 instructions: 810000000 cycles: 2406892425 heartbeat IPC: 0.322151 cumulative IPC: 0.299409 (Simulation time: 0 hr 27 min 27 sec) 
Heartbeat CPU 0 instructions: 820000001 cycles: 2432450973 heartbeat IPC: 0.391259 cumulative IPC: 0.300388 (Simulation time: 0 hr 27 min 46 sec) 
Heartbeat CPU 0 instructions: 830000000 cycles: 2460276209 heartbeat IPC: 0.359386 cumulative IPC: 0.301065 (Simulation time: 0 hr 28 min 5 sec) 
Heartbeat CPU 0 instructions: 840000000 cycles: 2488487057 heartbeat IPC: 0.354474 cumulative IPC: 0.301679 (Simulation time: 0 hr 28 min 24 sec) 
Heartbeat CPU 0 instructions: 850000002 cycles: 2523610961 heartbeat IPC: 0.284706 cumulative IPC: 0.30144 (Simulation time: 0 hr 28 min 44 sec) 
Heartbeat CPU 0 instructions: 860000000 cycles: 2552691178 heartbeat IPC: 0.343876 cumulative IPC: 0.30193 (Simulation time: 0 hr 29 min 3 sec) 
Heartbeat CPU 0 instructions: 870000001 cycles: 2584108646 heartbeat IPC: 0.318294 cumulative IPC: 0.302132 (Simulation time: 0 hr 29 min 23 sec) 
Heartbeat CPU 0 instructions: 880000000 cycles: 2609817377 heartbeat IPC: 0.388973 cumulative IPC: 0.302999 (Simulation time: 0 hr 29 min 42 sec) 
Heartbeat CPU 0 instructions: 890000001 cycles: 2636786499 heartbeat IPC: 0.370794 cumulative IPC: 0.303702 (Simulation time: 0 hr 30 min 0 sec) 
Heartbeat CPU 0 instructions: 900000002 cycles: 2664802411 heartbeat IPC: 0.35694 cumulative IPC: 0.304269 (Simulation time: 0 hr 30 min 20 sec) 
Heartbeat CPU 0 instructions: 910000000 cycles: 2690652552 heartbeat IPC: 0.386845 cumulative IPC: 0.305073 (Simulation time: 0 hr 30 min 39 sec) 
Heartbeat CPU 0 instructions: 920000000 cycles: 2717327548 heartbeat IPC: 0.374883 cumulative IPC: 0.305768 (Simulation time: 0 hr 30 min 58 sec) 
Heartbeat CPU 0 instructions: 930000000 cycles: 2745888803 heartbeat IPC: 0.350125 cumulative IPC: 0.306235 (Simulation time: 0 hr 31 min 18 sec) 
Heartbeat CPU 0 instructions: 940000003 cycles: 2776365897 heartbeat IPC: 0.328115 cumulative IPC: 0.306478 (Simulation time: 0 hr 31 min 38 sec) 
Heartbeat CPU 0 instructions: 950000003 cycles: 2822100966 heartbeat IPC: 0.218651 cumulative IPC: 0.305037 (Simulation time: 0 hr 31 min 58 sec) 
Heartbeat CPU 0 instructions: 960000003 cycles: 2867627144 heartbeat IPC: 0.219654 cumulative IPC: 0.303664 (Simulation time: 0 hr 32 min 18 sec) 
Heartbeat CPU 0 instructions: 970000001 cycles: 2913794493 heartbeat IPC: 0.216603 cumulative IPC: 0.302268 (Simulation time: 0 hr 32 min 38 sec) 
Heartbeat CPU 0 instructions: 980000003 cycles: 2961006613 heartbeat IPC: 0.21181 cumulative IPC: 0.300808 (Simulation time: 0 hr 32 min 59 sec) 
Heartbeat CPU 0 instructions: 990000000 cycles: 3006589337 heartbeat IPC: 0.219381 cumulative IPC: 0.299559 (Simulation time: 0 hr 33 min 19 sec) 
Heartbeat CPU 0 instructions: 1000000000 cycles: 3051407208 heartbeat IPC: 0.223125 cumulative IPC: 0.298423 (Simulation time: 0 hr 33 min 40 sec) 
Heartbeat CPU 0 instructions: 1010000003 cycles: 3100946727 heartbeat IPC: 0.201859 cumulative IPC: 0.296862 (Simulation time: 0 hr 34 min 1 sec) 
Heartbeat CPU 0 instructions: 1020000000 cycles: 3135233978 heartbeat IPC: 0.291654 cumulative IPC: 0.296805 (Simulation time: 0 hr 34 min 21 sec) 
Heartbeat CPU 0 instructions: 1030000000 cycles: 3167649508 heartbeat IPC: 0.308494 cumulative IPC: 0.296926 (Simulation time: 0 hr 34 min 40 sec) 
Heartbeat CPU 0 instructions: 1040000000 cycles: 3206828622 heartbeat IPC: 0.255238 cumulative IPC: 0.296411 (Simulation time: 0 hr 35 min 0 sec) 
Heartbeat CPU 0 instructions: 1050000000 cycles: 3235595646 heartbeat IPC: 0.34762 cumulative IPC: 0.296871 (Simulation time: 0 hr 35 min 20 sec) 
Heartbeat CPU 0 instructions: 1060000003 cycles: 3261626629 heartbeat IPC: 0.384158 cumulative IPC: 0.297575 (Simulation time: 0 hr 35 min 39 sec) 
Heartbeat CPU 0 instructions: 1070000000 cycles: 3288431025 heartbeat IPC: 0.373073 cumulative IPC: 0.298197 (Simulation time: 0 hr 35 min 58 sec) 
Heartbeat CPU 0 instructions: 1080000000 cycles: 3319451438 heartbeat IPC: 0.322368 cumulative IPC: 0.298426 (Simulation time: 0 hr 36 min 17 sec) 
Heartbeat CPU 0 instructions: 1090000001 cycles: 3357116826 heartbeat IPC: 0.265496 cumulative IPC: 0.298052 (Simulation time: 0 hr 36 min 37 sec) 
Heartbeat CPU 0 instructions: 1100000000 cycles: 3395534050 heartbeat IPC: 0.2603 cumulative IPC: 0.297621 (Simulation time: 0 hr 36 min 57 sec) 
Finished CPU 0 instructions: 1000000000 cycles: 3359981284 cumulative IPC: 0.297621 (Simulation time: 0 hr 36 min 57 sec) 

ChampSim completed all CPUs

Region of Interest Statistics

CPU 0 cumulative IPC: 0.297621 instructions: 1000000000 cycles: 3359981284
L1D TOTAL     ACCESS:  258656822  HIT:  229031535  MISS:   29625287
L1D LOAD      ACCESS:  216210379  HIT:  187033147  MISS:   29177232
L1D RFO       ACCESS:   42446443  HIT:   41998388  MISS:     448055
L1D PREFETCH  ACCESS:          0  HIT:          0  MISS:          0
L1D WRITEBACK ACCESS:          0  HIT:          0  MISS:          0
L1D PREFETCH  REQUESTED:          0  ISSUED:          0  USEFUL:          0  USELESS:          0
L1D AVERAGE MISS LATENCY: 58.9672 cycles
L1I TOTAL     ACCESS:  197682557  HIT:  197682545  MISS:         12
L1I LOAD      ACCESS:  197682557  HIT:  197682545  MISS:         12
L1I RFO       ACCESS:          0  HIT:          0  MISS:          0
L1I PREFETCH  ACCESS:          0  HIT:          0  MISS:          0
L1I WRITEBACK ACCESS:          0  HIT:          0  MISS:          0
L1I PREFETCH  REQUESTED:          0  ISSUED:          0  USEFUL:          0  USELESS:          0
L1I AVERAGE MISS LATENCY: 201.75 cycles
L2C TOTAL     ACCESS:   39304170  HIT:   18262010  MISS:   21042160
L2C LOAD      ACCESS:   29176644  HIT:    8297785  MISS:   20878859
L2C RFO       ACCESS:     447976  HIT:     286109  MISS:     161867
L2C PREFETCH  ACCESS:          0  HIT:          0  MISS:          0
L2C WRITEBACK ACCESS:    9679550  HIT:    9678116  MISS:       1434
L2C PREFETCH  REQUESTED:          0  ISSUED:          0  USEFUL:          0  USELESS:          0
L2C AVERAGE MISS LATENCY: 61.4901 cycles
LLC TOTAL     ACCESS:   28115840  HIT:   25750346  MISS:    2365494
LLC LOAD      ACCESS:   20878158  HIT:   18516014  MISS:    2362144
LLC RFO       ACCESS:     161851  HIT:     158811  MISS:       3040
LLC PREFETCH  ACCESS:          0  HIT:          0  MISS:          0
LLC WRITEBACK ACCESS:    7075831  HIT:    7075521  MISS:        310
LLC PREFETCH  REQUESTED:          0  ISSUED:          0  USEFUL:          0  USELESS:          0
LLC AVERAGE MISS LATENCY: 174.315 cycles
Major fault: 0 Minor fault: 6231

DRAM Statistics
 CHANNEL 0
 RQ ROW_BUFFER_HIT:     327985  ROW_BUFFER_MISS:    2037165
 DBUS_CONGESTED:      83195
 WQ ROW_BUFFER_HIT:      45769  ROW_BUFFER_MISS:    1388039  FULL:          0

 AVG_CONGESTED_CYCLE: 5

CPU 0 Branch Prediction Accuracy: 72.3402% MPKI: 52.2267 Average ROB Occupancy at Mispredict: 4.94737

Branch types
NOT_BRANCH: 811181313 81.1181%
BRANCH_DIRECT_JUMP: 63895 0.0063895%
BRANCH_INDIRECT: 0 0%
BRANCH_CONDITIONAL: 188708919 18.8709%
BRANCH_DIRECT_CALL: 22746 0.0022746%
BRANCH_INDIRECT_CALL: 0 0%
BRANCH_RETURN: 22746 0.0022746%
BRANCH_OTHER: 0 0%

