
*** ChampSim Multicore Out-of-Order Simulator ***

Warmup Instructions: 100000000
Simulation Instructions: 1000000000
Number of CPUs: 1
LLC sets: 2048
LLC ways: 16
Off-chip DRAM Size: 4096 MB Channels: 1 Width: 64-bit Data Rate: 3200 MT/s

CPU 0 runs /scratch/user/kevin.weston/dpc3-traces/473.champsimtrace.xz
CPU 0 Bimodal branch predictor
Initialize DRRIP state
Assign rand_sets[0]: 454  LLC: 2048
rand_sets[0]: 454
Assign rand_sets[1]: 1662  LLC: 2048
rand_sets[1]: 1662
Assign rand_sets[2]: 1921  LLC: 2048
rand_sets[2]: 1921
Assign rand_sets[3]: 1131  LLC: 2048
rand_sets[3]: 1131
Assign rand_sets[4]: 331  LLC: 2048
rand_sets[4]: 331
Assign rand_sets[5]: 1531  LLC: 2048
rand_sets[5]: 1531
Assign rand_sets[6]: 482  LLC: 2048
rand_sets[6]: 482
Assign rand_sets[7]: 1275  LLC: 2048
rand_sets[7]: 1275
Assign rand_sets[8]: 1876  LLC: 2048
rand_sets[8]: 1876
Assign rand_sets[9]: 2038  LLC: 2048
rand_sets[9]: 2038
Assign rand_sets[10]: 701  LLC: 2048
rand_sets[10]: 701
Assign rand_sets[11]: 479  LLC: 2048
rand_sets[11]: 479
Assign rand_sets[12]: 892  LLC: 2048
rand_sets[12]: 892
Assign rand_sets[13]: 1820  LLC: 2048
rand_sets[13]: 1820
Assign rand_sets[14]: 1505  LLC: 2048
rand_sets[14]: 1505
Assign rand_sets[15]: 1159  LLC: 2048
rand_sets[15]: 1159
Assign rand_sets[16]: 513  LLC: 2048
rand_sets[16]: 513
Assign rand_sets[17]: 703  LLC: 2048
rand_sets[17]: 703
Assign rand_sets[18]: 561  LLC: 2048
rand_sets[18]: 561
Assign rand_sets[19]: 990  LLC: 2048
rand_sets[19]: 990
Assign rand_sets[20]: 342  LLC: 2048
rand_sets[20]: 342
Assign rand_sets[21]: 882  LLC: 2048
rand_sets[21]: 882
Assign rand_sets[22]: 15  LLC: 2048
rand_sets[22]: 15
Assign rand_sets[23]: 71  LLC: 2048
rand_sets[23]: 71
Assign rand_sets[24]: 1127  LLC: 2048
rand_sets[24]: 1127
Assign rand_sets[25]: 1382  LLC: 2048
rand_sets[25]: 1382
Assign rand_sets[26]: 647  LLC: 2048
rand_sets[26]: 647
Assign rand_sets[27]: 857  LLC: 2048
rand_sets[27]: 857
Assign rand_sets[28]: 1450  LLC: 2048
rand_sets[28]: 1450
Assign rand_sets[29]: 1160  LLC: 2048
rand_sets[29]: 1160
Assign rand_sets[30]: 1852  LLC: 2048
rand_sets[30]: 1852
Assign rand_sets[31]: 1881  LLC: 2048
rand_sets[31]: 1881
Assign rand_sets[32]: 1770  LLC: 2048
rand_sets[32]: 1770
Assign rand_sets[33]: 1622  LLC: 2048
rand_sets[33]: 1622
Assign rand_sets[34]: 275  LLC: 2048
rand_sets[34]: 275
Assign rand_sets[35]: 635  LLC: 2048
rand_sets[35]: 635
Assign rand_sets[36]: 466  LLC: 2048
rand_sets[36]: 466
Assign rand_sets[37]: 1413  LLC: 2048
rand_sets[37]: 1413
Assign rand_sets[38]: 417  LLC: 2048
rand_sets[38]: 417
Assign rand_sets[39]: 472  LLC: 2048
rand_sets[39]: 472
Assign rand_sets[40]: 1340  LLC: 2048
rand_sets[40]: 1340
Assign rand_sets[41]: 852  LLC: 2048
rand_sets[41]: 852
Assign rand_sets[42]: 1365  LLC: 2048
rand_sets[42]: 1365
Assign rand_sets[43]: 47  LLC: 2048
rand_sets[43]: 47
Assign rand_sets[44]: 823  LLC: 2048
rand_sets[44]: 823
Assign rand_sets[45]: 686  LLC: 2048
rand_sets[45]: 686
Assign rand_sets[46]: 1637  LLC: 2048
rand_sets[46]: 1637
Assign rand_sets[47]: 1115  LLC: 2048
rand_sets[47]: 1115
Assign rand_sets[48]: 986  LLC: 2048
rand_sets[48]: 986
Assign rand_sets[49]: 258  LLC: 2048
rand_sets[49]: 258
Assign rand_sets[50]: 633  LLC: 2048
rand_sets[50]: 633
Assign rand_sets[51]: 920  LLC: 2048
rand_sets[51]: 920
Assign rand_sets[52]: 204  LLC: 2048
rand_sets[52]: 204
Assign rand_sets[53]: 227  LLC: 2048
rand_sets[53]: 227
Assign rand_sets[54]: 1818  LLC: 2048
rand_sets[54]: 1818
Assign rand_sets[55]: 886  LLC: 2048
rand_sets[55]: 886
Assign rand_sets[56]: 1422  LLC: 2048
rand_sets[56]: 1422
Assign rand_sets[57]: 607  LLC: 2048
rand_sets[57]: 607
Assign rand_sets[58]: 217  LLC: 2048
rand_sets[58]: 217
Assign rand_sets[59]: 1945  LLC: 2048
rand_sets[59]: 1945
Assign rand_sets[60]: 143  LLC: 2048
rand_sets[60]: 143
Assign rand_sets[61]: 1311  LLC: 2048
rand_sets[61]: 1311
Assign rand_sets[62]: 319  LLC: 2048
rand_sets[62]: 319
Assign rand_sets[63]: 1846  LLC: 2048
rand_sets[63]: 1846
Heartbeat CPU 0 instructions: 10000002 cycles: 3575405 heartbeat IPC: 2.79689 cumulative IPC: 2.79689 (Simulation time: 0 hr 0 min 24 sec) 
Heartbeat CPU 0 instructions: 20000002 cycles: 7111437 heartbeat IPC: 2.82803 cumulative IPC: 2.81237 (Simulation time: 0 hr 0 min 47 sec) 
Heartbeat CPU 0 instructions: 30000001 cycles: 10662154 heartbeat IPC: 2.81633 cumulative IPC: 2.81369 (Simulation time: 0 hr 1 min 11 sec) 
Heartbeat CPU 0 instructions: 40000001 cycles: 14226674 heartbeat IPC: 2.80543 cumulative IPC: 2.81162 (Simulation time: 0 hr 1 min 35 sec) 
Heartbeat CPU 0 instructions: 50000003 cycles: 17787082 heartbeat IPC: 2.80867 cumulative IPC: 2.81103 (Simulation time: 0 hr 1 min 58 sec) 
Heartbeat CPU 0 instructions: 60000000 cycles: 21333584 heartbeat IPC: 2.81968 cumulative IPC: 2.81247 (Simulation time: 0 hr 2 min 22 sec) 
Heartbeat CPU 0 instructions: 70000002 cycles: 24884468 heartbeat IPC: 2.8162 cumulative IPC: 2.813 (Simulation time: 0 hr 2 min 46 sec) 
Heartbeat CPU 0 instructions: 80000002 cycles: 28443043 heartbeat IPC: 2.81011 cumulative IPC: 2.81264 (Simulation time: 0 hr 3 min 9 sec) 
Heartbeat CPU 0 instructions: 90000002 cycles: 32010395 heartbeat IPC: 2.8032 cumulative IPC: 2.81159 (Simulation time: 0 hr 3 min 33 sec) 
Heartbeat CPU 0 instructions: 100000001 cycles: 35553362 heartbeat IPC: 2.82249 cumulative IPC: 2.81267 (Simulation time: 0 hr 3 min 57 sec) 

Warmup complete CPU 0 instructions: 100000001 cycles: 35553362 (Simulation time: 0 hr 3 min 57 sec) 

Heartbeat CPU 0 instructions: 110000000 cycles: 66004383 heartbeat IPC: 0.328396 cumulative IPC: 0.328396 (Simulation time: 0 hr 4 min 14 sec) 
Heartbeat CPU 0 instructions: 120000000 cycles: 108651500 heartbeat IPC: 0.234482 cumulative IPC: 0.273605 (Simulation time: 0 hr 4 min 31 sec) 
Heartbeat CPU 0 instructions: 130000001 cycles: 153126523 heartbeat IPC: 0.224845 cumulative IPC: 0.25516 (Simulation time: 0 hr 4 min 49 sec) 
Heartbeat CPU 0 instructions: 140000000 cycles: 183308930 heartbeat IPC: 0.331319 cumulative IPC: 0.270717 (Simulation time: 0 hr 5 min 6 sec) 
Heartbeat CPU 0 instructions: 150000001 cycles: 210632099 heartbeat IPC: 0.36599 cumulative IPC: 0.285586 (Simulation time: 0 hr 5 min 22 sec) 
Heartbeat CPU 0 instructions: 160000000 cycles: 238428907 heartbeat IPC: 0.359753 cumulative IPC: 0.295748 (Simulation time: 0 hr 5 min 39 sec) 
Heartbeat CPU 0 instructions: 170000000 cycles: 272195766 heartbeat IPC: 0.296148 cumulative IPC: 0.295805 (Simulation time: 0 hr 5 min 56 sec) 
Heartbeat CPU 0 instructions: 180000000 cycles: 311160258 heartbeat IPC: 0.256644 cumulative IPC: 0.290268 (Simulation time: 0 hr 6 min 14 sec) 
Heartbeat CPU 0 instructions: 190000000 cycles: 352828615 heartbeat IPC: 0.23999 cumulative IPC: 0.283665 (Simulation time: 0 hr 6 min 31 sec) 
Heartbeat CPU 0 instructions: 200000001 cycles: 394011907 heartbeat IPC: 0.242817 cumulative IPC: 0.278972 (Simulation time: 0 hr 6 min 49 sec) 
Heartbeat CPU 0 instructions: 210000002 cycles: 427698186 heartbeat IPC: 0.296857 cumulative IPC: 0.280509 (Simulation time: 0 hr 7 min 6 sec) 
Heartbeat CPU 0 instructions: 220000000 cycles: 454592580 heartbeat IPC: 0.371825 cumulative IPC: 0.286369 (Simulation time: 0 hr 7 min 22 sec) 
Heartbeat CPU 0 instructions: 230000001 cycles: 482726591 heartbeat IPC: 0.355442 cumulative IPC: 0.290715 (Simulation time: 0 hr 7 min 39 sec) 
Heartbeat CPU 0 instructions: 240000000 cycles: 509283528 heartbeat IPC: 0.376549 cumulative IPC: 0.295527 (Simulation time: 0 hr 7 min 55 sec) 
Heartbeat CPU 0 instructions: 250000003 cycles: 539096545 heartbeat IPC: 0.335424 cumulative IPC: 0.297889 (Simulation time: 0 hr 8 min 12 sec) 
Heartbeat CPU 0 instructions: 260000002 cycles: 581581320 heartbeat IPC: 0.235378 cumulative IPC: 0.293025 (Simulation time: 0 hr 8 min 30 sec) 
Heartbeat CPU 0 instructions: 270000000 cycles: 618323485 heartbeat IPC: 0.272167 cumulative IPC: 0.29171 (Simulation time: 0 hr 8 min 47 sec) 
Heartbeat CPU 0 instructions: 280000003 cycles: 645269726 heartbeat IPC: 0.371109 cumulative IPC: 0.295219 (Simulation time: 0 hr 9 min 3 sec) 
Heartbeat CPU 0 instructions: 290000001 cycles: 678514563 heartbeat IPC: 0.300799 cumulative IPC: 0.295508 (Simulation time: 0 hr 9 min 21 sec) 
Heartbeat CPU 0 instructions: 300000002 cycles: 713348670 heartbeat IPC: 0.287075 cumulative IPC: 0.295074 (Simulation time: 0 hr 9 min 37 sec) 
Heartbeat CPU 0 instructions: 310000003 cycles: 750919688 heartbeat IPC: 0.266163 cumulative IPC: 0.293556 (Simulation time: 0 hr 9 min 54 sec) 
Heartbeat CPU 0 instructions: 320000001 cycles: 784288738 heartbeat IPC: 0.299679 cumulative IPC: 0.293829 (Simulation time: 0 hr 10 min 11 sec) 
Heartbeat CPU 0 instructions: 330000000 cycles: 811322137 heartbeat IPC: 0.369913 cumulative IPC: 0.29648 (Simulation time: 0 hr 10 min 28 sec) 
Heartbeat CPU 0 instructions: 340000003 cycles: 845603856 heartbeat IPC: 0.291701 cumulative IPC: 0.296278 (Simulation time: 0 hr 10 min 44 sec) 
Heartbeat CPU 0 instructions: 350000001 cycles: 880612062 heartbeat IPC: 0.285647 cumulative IPC: 0.295837 (Simulation time: 0 hr 11 min 2 sec) 
Heartbeat CPU 0 instructions: 360000000 cycles: 922001003 heartbeat IPC: 0.24161 cumulative IPC: 0.293306 (Simulation time: 0 hr 11 min 19 sec) 
Heartbeat CPU 0 instructions: 370000000 cycles: 960225611 heartbeat IPC: 0.261612 cumulative IPC: 0.291995 (Simulation time: 0 hr 11 min 36 sec) 
Heartbeat CPU 0 instructions: 380000000 cycles: 988088798 heartbeat IPC: 0.358896 cumulative IPC: 0.293952 (Simulation time: 0 hr 11 min 52 sec) 
Heartbeat CPU 0 instructions: 390000002 cycles: 1023696303 heartbeat IPC: 0.28084 cumulative IPC: 0.29348 (Simulation time: 0 hr 12 min 9 sec) 
Heartbeat CPU 0 instructions: 400000002 cycles: 1057953500 heartbeat IPC: 0.291909 cumulative IPC: 0.293427 (Simulation time: 0 hr 12 min 26 sec) 
Heartbeat CPU 0 instructions: 410000000 cycles: 1089584703 heartbeat IPC: 0.316143 cumulative IPC: 0.294109 (Simulation time: 0 hr 12 min 43 sec) 
Heartbeat CPU 0 instructions: 420000001 cycles: 1122069954 heartbeat IPC: 0.307832 cumulative IPC: 0.294519 (Simulation time: 0 hr 13 min 0 sec) 
Heartbeat CPU 0 instructions: 430000002 cycles: 1152293628 heartbeat IPC: 0.330866 cumulative IPC: 0.295503 (Simulation time: 0 hr 13 min 17 sec) 
Heartbeat CPU 0 instructions: 440000000 cycles: 1193810318 heartbeat IPC: 0.240867 cumulative IPC: 0.293545 (Simulation time: 0 hr 13 min 34 sec) 
Heartbeat CPU 0 instructions: 450000000 cycles: 1234069614 heartbeat IPC: 0.24839 cumulative IPC: 0.292028 (Simulation time: 0 hr 13 min 52 sec) 
Heartbeat CPU 0 instructions: 460000000 cycles: 1270617718 heartbeat IPC: 0.273612 cumulative IPC: 0.291483 (Simulation time: 0 hr 14 min 9 sec) 
Heartbeat CPU 0 instructions: 470000000 cycles: 1303349307 heartbeat IPC: 0.305515 cumulative IPC: 0.291845 (Simulation time: 0 hr 14 min 26 sec) 
Heartbeat CPU 0 instructions: 480000002 cycles: 1331980528 heartbeat IPC: 0.349269 cumulative IPC: 0.293113 (Simulation time: 0 hr 14 min 43 sec) 
Heartbeat CPU 0 instructions: 490000000 cycles: 1358831931 heartbeat IPC: 0.37242 cumulative IPC: 0.294723 (Simulation time: 0 hr 14 min 59 sec) 
Heartbeat CPU 0 instructions: 500000001 cycles: 1385367704 heartbeat IPC: 0.37685 cumulative IPC: 0.296337 (Simulation time: 0 hr 15 min 15 sec) 
Heartbeat CPU 0 instructions: 510000001 cycles: 1410247451 heartbeat IPC: 0.401933 cumulative IPC: 0.298248 (Simulation time: 0 hr 15 min 31 sec) 
Heartbeat CPU 0 instructions: 520000002 cycles: 1437488678 heartbeat IPC: 0.367091 cumulative IPC: 0.299586 (Simulation time: 0 hr 15 min 48 sec) 
Heartbeat CPU 0 instructions: 530000002 cycles: 1466543475 heartbeat IPC: 0.344177 cumulative IPC: 0.300491 (Simulation time: 0 hr 16 min 4 sec) 
Heartbeat CPU 0 instructions: 540000003 cycles: 1496231683 heartbeat IPC: 0.336834 cumulative IPC: 0.30123 (Simulation time: 0 hr 16 min 21 sec) 
Heartbeat CPU 0 instructions: 550000000 cycles: 1534827870 heartbeat IPC: 0.259093 cumulative IPC: 0.300145 (Simulation time: 0 hr 16 min 38 sec) 
Heartbeat CPU 0 instructions: 560000003 cycles: 1576735507 heartbeat IPC: 0.23862 cumulative IPC: 0.298472 (Simulation time: 0 hr 16 min 56 sec) 
Heartbeat CPU 0 instructions: 570000002 cycles: 1617414724 heartbeat IPC: 0.245826 cumulative IPC: 0.297118 (Simulation time: 0 hr 17 min 14 sec) 
Heartbeat CPU 0 instructions: 580000001 cycles: 1645262416 heartbeat IPC: 0.359096 cumulative IPC: 0.298191 (Simulation time: 0 hr 17 min 31 sec) 
Heartbeat CPU 0 instructions: 590000000 cycles: 1672505654 heartbeat IPC: 0.367064 cumulative IPC: 0.299337 (Simulation time: 0 hr 17 min 47 sec) 
Heartbeat CPU 0 instructions: 600000001 cycles: 1701009593 heartbeat IPC: 0.350829 cumulative IPC: 0.300218 (Simulation time: 0 hr 18 min 4 sec) 
Heartbeat CPU 0 instructions: 610000001 cycles: 1728053785 heartbeat IPC: 0.369765 cumulative IPC: 0.301329 (Simulation time: 0 hr 18 min 21 sec) 
Heartbeat CPU 0 instructions: 620000000 cycles: 1753657099 heartbeat IPC: 0.390574 cumulative IPC: 0.302659 (Simulation time: 0 hr 18 min 37 sec) 
Heartbeat CPU 0 instructions: 630000003 cycles: 1779506948 heartbeat IPC: 0.38685 cumulative IPC: 0.303907 (Simulation time: 0 hr 18 min 53 sec) 
Heartbeat CPU 0 instructions: 640000001 cycles: 1806252539 heartbeat IPC: 0.373893 cumulative IPC: 0.304964 (Simulation time: 0 hr 19 min 10 sec) 
Heartbeat CPU 0 instructions: 650000000 cycles: 1832823997 heartbeat IPC: 0.376344 cumulative IPC: 0.30602 (Simulation time: 0 hr 19 min 27 sec) 
Heartbeat CPU 0 instructions: 660000000 cycles: 1859565481 heartbeat IPC: 0.373951 cumulative IPC: 0.307016 (Simulation time: 0 hr 19 min 43 sec) 
Heartbeat CPU 0 instructions: 670000000 cycles: 1888685840 heartbeat IPC: 0.343402 cumulative IPC: 0.307587 (Simulation time: 0 hr 20 min 0 sec) 
Heartbeat CPU 0 instructions: 680000001 cycles: 1914645350 heartbeat IPC: 0.385215 cumulative IPC: 0.30866 (Simulation time: 0 hr 20 min 16 sec) 
Heartbeat CPU 0 instructions: 690000000 cycles: 1952939599 heartbeat IPC: 0.261136 cumulative IPC: 0.307711 (Simulation time: 0 hr 20 min 33 sec) 
Heartbeat CPU 0 instructions: 700000001 cycles: 1993384207 heartbeat IPC: 0.247252 cumulative IPC: 0.306462 (Simulation time: 0 hr 20 min 51 sec) 
Heartbeat CPU 0 instructions: 710000000 cycles: 2032003739 heartbeat IPC: 0.258936 cumulative IPC: 0.305542 (Simulation time: 0 hr 21 min 8 sec) 
Heartbeat CPU 0 instructions: 720000001 cycles: 2068389591 heartbeat IPC: 0.274832 cumulative IPC: 0.304993 (Simulation time: 0 hr 21 min 25 sec) 
Heartbeat CPU 0 instructions: 730000001 cycles: 2111226870 heartbeat IPC: 0.233442 cumulative IPC: 0.303516 (Simulation time: 0 hr 21 min 42 sec) 
Heartbeat CPU 0 instructions: 740000000 cycles: 2149613463 heartbeat IPC: 0.260508 cumulative IPC: 0.302735 (Simulation time: 0 hr 22 min 0 sec) 
Heartbeat CPU 0 instructions: 750000000 cycles: 2186250948 heartbeat IPC: 0.272945 cumulative IPC: 0.302228 (Simulation time: 0 hr 22 min 17 sec) 
Heartbeat CPU 0 instructions: 760000001 cycles: 2227535921 heartbeat IPC: 0.242219 cumulative IPC: 0.301097 (Simulation time: 0 hr 22 min 34 sec) 
Heartbeat CPU 0 instructions: 770000000 cycles: 2272021001 heartbeat IPC: 0.224794 cumulative IPC: 0.29958 (Simulation time: 0 hr 22 min 51 sec) 
Heartbeat CPU 0 instructions: 780000000 cycles: 2315269164 heartbeat IPC: 0.231224 cumulative IPC: 0.298283 (Simulation time: 0 hr 23 min 9 sec) 
Heartbeat CPU 0 instructions: 790000001 cycles: 2359516204 heartbeat IPC: 0.226004 cumulative IPC: 0.296907 (Simulation time: 0 hr 23 min 26 sec) 
Heartbeat CPU 0 instructions: 800000000 cycles: 2387791432 heartbeat IPC: 0.353666 cumulative IPC: 0.297589 (Simulation time: 0 hr 23 min 43 sec) 
Heartbeat CPU 0 instructions: 810000000 cycles: 2419276458 heartbeat IPC: 0.317611 cumulative IPC: 0.297853 (Simulation time: 0 hr 24 min 0 sec) 
Heartbeat CPU 0 instructions: 820000001 cycles: 2444891079 heartbeat IPC: 0.390402 cumulative IPC: 0.298837 (Simulation time: 0 hr 24 min 16 sec) 
Heartbeat CPU 0 instructions: 830000000 cycles: 2472838417 heartbeat IPC: 0.357816 cumulative IPC: 0.299514 (Simulation time: 0 hr 24 min 33 sec) 
Heartbeat CPU 0 instructions: 840000000 cycles: 2501320749 heartbeat IPC: 0.351095 cumulative IPC: 0.300109 (Simulation time: 0 hr 24 min 50 sec) 
Heartbeat CPU 0 instructions: 850000002 cycles: 2536605567 heartbeat IPC: 0.283408 cumulative IPC: 0.299874 (Simulation time: 0 hr 25 min 7 sec) 
Heartbeat CPU 0 instructions: 860000000 cycles: 2565920825 heartbeat IPC: 0.341119 cumulative IPC: 0.300352 (Simulation time: 0 hr 25 min 24 sec) 
Heartbeat CPU 0 instructions: 870000001 cycles: 2597576529 heartbeat IPC: 0.315899 cumulative IPC: 0.300544 (Simulation time: 0 hr 25 min 41 sec) 
Heartbeat CPU 0 instructions: 880000000 cycles: 2623255881 heartbeat IPC: 0.389418 cumulative IPC: 0.301426 (Simulation time: 0 hr 25 min 58 sec) 
Heartbeat CPU 0 instructions: 890000001 cycles: 2650258144 heartbeat IPC: 0.370339 cumulative IPC: 0.302137 (Simulation time: 0 hr 26 min 14 sec) 
Heartbeat CPU 0 instructions: 900000002 cycles: 2678485941 heartbeat IPC: 0.354261 cumulative IPC: 0.302694 (Simulation time: 0 hr 26 min 31 sec) 
Heartbeat CPU 0 instructions: 910000000 cycles: 2704442883 heartbeat IPC: 0.385253 cumulative IPC: 0.303497 (Simulation time: 0 hr 26 min 48 sec) 
Heartbeat CPU 0 instructions: 920000000 cycles: 2731273118 heartbeat IPC: 0.372714 cumulative IPC: 0.304186 (Simulation time: 0 hr 27 min 4 sec) 
Heartbeat CPU 0 instructions: 930000000 cycles: 2760053518 heartbeat IPC: 0.347459 cumulative IPC: 0.304643 (Simulation time: 0 hr 27 min 21 sec) 
Heartbeat CPU 0 instructions: 940000003 cycles: 2790608400 heartbeat IPC: 0.32728 cumulative IPC: 0.304894 (Simulation time: 0 hr 27 min 38 sec) 
Heartbeat CPU 0 instructions: 950000003 cycles: 2836571062 heartbeat IPC: 0.217568 cumulative IPC: 0.303461 (Simulation time: 0 hr 27 min 55 sec) 
Heartbeat CPU 0 instructions: 960000003 cycles: 2882263012 heartbeat IPC: 0.218857 cumulative IPC: 0.302103 (Simulation time: 0 hr 28 min 13 sec) 
Heartbeat CPU 0 instructions: 970000001 cycles: 2928742456 heartbeat IPC: 0.215149 cumulative IPC: 0.300706 (Simulation time: 0 hr 28 min 30 sec) 
Heartbeat CPU 0 instructions: 980000003 cycles: 2976403684 heartbeat IPC: 0.209814 cumulative IPC: 0.299233 (Simulation time: 0 hr 28 min 48 sec) 
Heartbeat CPU 0 instructions: 990000000 cycles: 3022369350 heartbeat IPC: 0.217554 cumulative IPC: 0.297976 (Simulation time: 0 hr 29 min 6 sec) 
Heartbeat CPU 0 instructions: 1000000000 cycles: 3067696240 heartbeat IPC: 0.22062 cumulative IPC: 0.29682 (Simulation time: 0 hr 29 min 23 sec) 
Heartbeat CPU 0 instructions: 1010000003 cycles: 3116912151 heartbeat IPC: 0.203186 cumulative IPC: 0.295324 (Simulation time: 0 hr 29 min 41 sec) 
Heartbeat CPU 0 instructions: 1020000000 cycles: 3151214635 heartbeat IPC: 0.291524 cumulative IPC: 0.295282 (Simulation time: 0 hr 29 min 58 sec) 
Heartbeat CPU 0 instructions: 1030000000 cycles: 3183880521 heartbeat IPC: 0.30613 cumulative IPC: 0.295395 (Simulation time: 0 hr 30 min 15 sec) 
Heartbeat CPU 0 instructions: 1040000000 cycles: 3223297303 heartbeat IPC: 0.253699 cumulative IPC: 0.294879 (Simulation time: 0 hr 30 min 33 sec) 
Heartbeat CPU 0 instructions: 1050000000 cycles: 3252344442 heartbeat IPC: 0.344268 cumulative IPC: 0.295325 (Simulation time: 0 hr 30 min 49 sec) 
Heartbeat CPU 0 instructions: 1060000003 cycles: 3278394005 heartbeat IPC: 0.383884 cumulative IPC: 0.296037 (Simulation time: 0 hr 31 min 5 sec) 
Heartbeat CPU 0 instructions: 1070000000 cycles: 3305335349 heartbeat IPC: 0.371177 cumulative IPC: 0.296656 (Simulation time: 0 hr 31 min 22 sec) 
Heartbeat CPU 0 instructions: 1080000000 cycles: 3336581605 heartbeat IPC: 0.320038 cumulative IPC: 0.296877 (Simulation time: 0 hr 31 min 39 sec) 
Heartbeat CPU 0 instructions: 1090000001 cycles: 3374503765 heartbeat IPC: 0.263698 cumulative IPC: 0.2965 (Simulation time: 0 hr 31 min 56 sec) 
Heartbeat CPU 0 instructions: 1100000000 cycles: 3413087726 heartbeat IPC: 0.259175 cumulative IPC: 0.296074 (Simulation time: 0 hr 32 min 13 sec) 
Finished CPU 0 instructions: 1000000000 cycles: 3377534371 cumulative IPC: 0.296074 (Simulation time: 0 hr 32 min 13 sec) 

ChampSim completed all CPUs

Region of Interest Statistics

CPU 0 cumulative IPC: 0.296074 instructions: 1000000000 cycles: 3377534371
L1D TOTAL     ACCESS:  258658832  HIT:  229033538  MISS:   29625294
L1D LOAD      ACCESS:  216212158  HIT:  187034919  MISS:   29177239
L1D RFO       ACCESS:   42446674  HIT:   41998619  MISS:     448055
L1D PREFETCH  ACCESS:          0  HIT:          0  MISS:          0
L1D WRITEBACK ACCESS:          0  HIT:          0  MISS:          0
L1D PREFETCH  REQUESTED:          0  ISSUED:          0  USEFUL:          0  USELESS:          0
L1D AVERAGE MISS LATENCY: 59.5495 cycles
L1I TOTAL     ACCESS:  197682862  HIT:  197682850  MISS:         12
L1I LOAD      ACCESS:  197682862  HIT:  197682850  MISS:         12
L1I RFO       ACCESS:          0  HIT:          0  MISS:          0
L1I PREFETCH  ACCESS:          0  HIT:          0  MISS:          0
L1I WRITEBACK ACCESS:          0  HIT:          0  MISS:          0
L1I PREFETCH  REQUESTED:          0  ISSUED:          0  USEFUL:          0  USELESS:          0
L1I AVERAGE MISS LATENCY: 218.417 cycles
L2C TOTAL     ACCESS:   39304185  HIT:   18351583  MISS:   20952602
L2C LOAD      ACCESS:   29176654  HIT:    8384176  MISS:   20792478
L2C RFO       ACCESS:     447976  HIT:     289131  MISS:     158845
L2C PREFETCH  ACCESS:          0  HIT:          0  MISS:          0
L2C WRITEBACK ACCESS:    9679555  HIT:    9678276  MISS:       1279
L2C PREFETCH  REQUESTED:          0  ISSUED:          0  USEFUL:          0  USELESS:          0
L2C AVERAGE MISS LATENCY: 62.5746 cycles
LLC TOTAL     ACCESS:   27999671  HIT:   25479453  MISS:    2520218
LLC LOAD      ACCESS:   20791880  HIT:   18314231  MISS:    2477649
LLC RFO       ACCESS:     158837  HIT:     155469  MISS:       3368
LLC PREFETCH  ACCESS:          0  HIT:          0  MISS:          0
LLC WRITEBACK ACCESS:    7048954  HIT:    7009753  MISS:      39201
LLC PREFETCH  REQUESTED:          0  ISSUED:          0  USEFUL:          0  USELESS:          0
LLC AVERAGE MISS LATENCY: 172.073 cycles
Major fault: 0 Minor fault: 6231

DRAM Statistics
 CHANNEL 0
 RQ ROW_BUFFER_HIT:     323607  ROW_BUFFER_MISS:    2157355
 DBUS_CONGESTED:      85805
 WQ ROW_BUFFER_HIT:      39003  ROW_BUFFER_MISS:    1422282  FULL:          0

 AVG_CONGESTED_CYCLE: 5

CPU 0 Branch Prediction Accuracy: 72.3402% MPKI: 52.2267 Average ROB Occupancy at Mispredict: 4.94842

Branch types
NOT_BRANCH: 811181313 81.1181%
BRANCH_DIRECT_JUMP: 63895 0.0063895%
BRANCH_INDIRECT: 0 0%
BRANCH_CONDITIONAL: 188708919 18.8709%
BRANCH_DIRECT_CALL: 22746 0.0022746%
BRANCH_INDIRECT_CALL: 0 0%
BRANCH_RETURN: 22746 0.0022746%
BRANCH_OTHER: 0 0%

