
*** ChampSim Multicore Out-of-Order Simulator ***

Warmup Instructions: 100000000
Simulation Instructions: 1000000000
Number of CPUs: 1
LLC sets: 2048
LLC ways: 16
Off-chip DRAM Size: 4096 MB Channels: 1 Width: 64-bit Data Rate: 3200 MT/s

CPU 0 runs /scratch/user/kevin.weston/dpc3-traces/473.champsimtrace.xz
CPU 0 Bimodal branch predictor
Per-line RRPV Initialized
PRRIP State Initialized
Assign SAMPLER_SET[0]: 454  LLC: 2048
SAMPLER_SET[0]: 454
Assign SAMPLER_SET[1]: 1662  LLC: 2048
SAMPLER_SET[1]: 1662
Assign SAMPLER_SET[2]: 1921  LLC: 2048
SAMPLER_SET[2]: 1921
Assign SAMPLER_SET[3]: 1131  LLC: 2048
SAMPLER_SET[3]: 1131
Assign SAMPLER_SET[4]: 331  LLC: 2048
SAMPLER_SET[4]: 331
Assign SAMPLER_SET[5]: 1531  LLC: 2048
SAMPLER_SET[5]: 1531
Assign SAMPLER_SET[6]: 482  LLC: 2048
SAMPLER_SET[6]: 482
Assign SAMPLER_SET[7]: 1275  LLC: 2048
SAMPLER_SET[7]: 1275
Assign SAMPLER_SET[8]: 1876  LLC: 2048
SAMPLER_SET[8]: 1876
Assign SAMPLER_SET[9]: 2038  LLC: 2048
SAMPLER_SET[9]: 2038
Assign SAMPLER_SET[10]: 701  LLC: 2048
SAMPLER_SET[10]: 701
Assign SAMPLER_SET[11]: 479  LLC: 2048
SAMPLER_SET[11]: 479
Assign SAMPLER_SET[12]: 892  LLC: 2048
SAMPLER_SET[12]: 892
Assign SAMPLER_SET[13]: 1820  LLC: 2048
SAMPLER_SET[13]: 1820
Assign SAMPLER_SET[14]: 1505  LLC: 2048
SAMPLER_SET[14]: 1505
Assign SAMPLER_SET[15]: 1159  LLC: 2048
SAMPLER_SET[15]: 1159
Assign SAMPLER_SET[16]: 513  LLC: 2048
SAMPLER_SET[16]: 513
Assign SAMPLER_SET[17]: 703  LLC: 2048
SAMPLER_SET[17]: 703
Assign SAMPLER_SET[18]: 561  LLC: 2048
SAMPLER_SET[18]: 561
Assign SAMPLER_SET[19]: 990  LLC: 2048
SAMPLER_SET[19]: 990
Assign SAMPLER_SET[20]: 342  LLC: 2048
SAMPLER_SET[20]: 342
Assign SAMPLER_SET[21]: 882  LLC: 2048
SAMPLER_SET[21]: 882
Assign SAMPLER_SET[22]: 15  LLC: 2048
SAMPLER_SET[22]: 15
Assign SAMPLER_SET[23]: 71  LLC: 2048
SAMPLER_SET[23]: 71
Assign SAMPLER_SET[24]: 1127  LLC: 2048
SAMPLER_SET[24]: 1127
Assign SAMPLER_SET[25]: 1382  LLC: 2048
SAMPLER_SET[25]: 1382
Assign SAMPLER_SET[26]: 647  LLC: 2048
SAMPLER_SET[26]: 647
Assign SAMPLER_SET[27]: 857  LLC: 2048
SAMPLER_SET[27]: 857
Assign SAMPLER_SET[28]: 1450  LLC: 2048
SAMPLER_SET[28]: 1450
Assign SAMPLER_SET[29]: 1160  LLC: 2048
SAMPLER_SET[29]: 1160
Assign SAMPLER_SET[30]: 1852  LLC: 2048
SAMPLER_SET[30]: 1852
Assign SAMPLER_SET[31]: 1881  LLC: 2048
SAMPLER_SET[31]: 1881
Assign SAMPLER_SET[32]: 1770  LLC: 2048
SAMPLER_SET[32]: 1770
Assign SAMPLER_SET[33]: 1622  LLC: 2048
SAMPLER_SET[33]: 1622
Assign SAMPLER_SET[34]: 275  LLC: 2048
SAMPLER_SET[34]: 275
Assign SAMPLER_SET[35]: 635  LLC: 2048
SAMPLER_SET[35]: 635
Assign SAMPLER_SET[36]: 466  LLC: 2048
SAMPLER_SET[36]: 466
Assign SAMPLER_SET[37]: 1413  LLC: 2048
SAMPLER_SET[37]: 1413
Assign SAMPLER_SET[38]: 417  LLC: 2048
SAMPLER_SET[38]: 417
Assign SAMPLER_SET[39]: 472  LLC: 2048
SAMPLER_SET[39]: 472
Assign SAMPLER_SET[40]: 1340  LLC: 2048
SAMPLER_SET[40]: 1340
Assign SAMPLER_SET[41]: 852  LLC: 2048
SAMPLER_SET[41]: 852
Assign SAMPLER_SET[42]: 1365  LLC: 2048
SAMPLER_SET[42]: 1365
Assign SAMPLER_SET[43]: 47  LLC: 2048
SAMPLER_SET[43]: 47
Assign SAMPLER_SET[44]: 823  LLC: 2048
SAMPLER_SET[44]: 823
Assign SAMPLER_SET[45]: 686  LLC: 2048
SAMPLER_SET[45]: 686
Assign SAMPLER_SET[46]: 1637  LLC: 2048
SAMPLER_SET[46]: 1637
Assign SAMPLER_SET[47]: 1115  LLC: 2048
SAMPLER_SET[47]: 1115
Assign SAMPLER_SET[48]: 986  LLC: 2048
SAMPLER_SET[48]: 986
Assign SAMPLER_SET[49]: 258  LLC: 2048
SAMPLER_SET[49]: 258
Assign SAMPLER_SET[50]: 633  LLC: 2048
SAMPLER_SET[50]: 633
Assign SAMPLER_SET[51]: 920  LLC: 2048
SAMPLER_SET[51]: 920
Assign SAMPLER_SET[52]: 204  LLC: 2048
SAMPLER_SET[52]: 204
Assign SAMPLER_SET[53]: 227  LLC: 2048
SAMPLER_SET[53]: 227
Assign SAMPLER_SET[54]: 1818  LLC: 2048
SAMPLER_SET[54]: 1818
Assign SAMPLER_SET[55]: 886  LLC: 2048
SAMPLER_SET[55]: 886
Assign SAMPLER_SET[56]: 1422  LLC: 2048
SAMPLER_SET[56]: 1422
Assign SAMPLER_SET[57]: 607  LLC: 2048
SAMPLER_SET[57]: 607
Assign SAMPLER_SET[58]: 217  LLC: 2048
SAMPLER_SET[58]: 217
Assign SAMPLER_SET[59]: 1945  LLC: 2048
SAMPLER_SET[59]: 1945
Assign SAMPLER_SET[60]: 143  LLC: 2048
SAMPLER_SET[60]: 143
Assign SAMPLER_SET[61]: 1311  LLC: 2048
SAMPLER_SET[61]: 1311
Assign SAMPLER_SET[62]: 319  LLC: 2048
SAMPLER_SET[62]: 319
Assign SAMPLER_SET[63]: 1846  LLC: 2048
SAMPLER_SET[63]: 1846
Heartbeat CPU 0 instructions: 10000002 cycles: 3575369 heartbeat IPC: 2.79691 cumulative IPC: 2.79691 (Simulation time: 0 hr 0 min 23 sec) 
Heartbeat CPU 0 instructions: 20000002 cycles: 7111222 heartbeat IPC: 2.82817 cumulative IPC: 2.81246 (Simulation time: 0 hr 0 min 47 sec) 
Heartbeat CPU 0 instructions: 30000001 cycles: 10662131 heartbeat IPC: 2.81618 cumulative IPC: 2.8137 (Simulation time: 0 hr 1 min 11 sec) 
Heartbeat CPU 0 instructions: 40000001 cycles: 14227005 heartbeat IPC: 2.80515 cumulative IPC: 2.81155 (Simulation time: 0 hr 1 min 34 sec) 
Heartbeat CPU 0 instructions: 50000003 cycles: 17787976 heartbeat IPC: 2.80822 cumulative IPC: 2.81089 (Simulation time: 0 hr 1 min 58 sec) 
Heartbeat CPU 0 instructions: 60000000 cycles: 21334805 heartbeat IPC: 2.81942 cumulative IPC: 2.81231 (Simulation time: 0 hr 2 min 22 sec) 
Heartbeat CPU 0 instructions: 70000002 cycles: 24886237 heartbeat IPC: 2.81577 cumulative IPC: 2.8128 (Simulation time: 0 hr 2 min 46 sec) 
Heartbeat CPU 0 instructions: 80000001 cycles: 28445130 heartbeat IPC: 2.80986 cumulative IPC: 2.81243 (Simulation time: 0 hr 3 min 10 sec) 
Heartbeat CPU 0 instructions: 90000002 cycles: 32012588 heartbeat IPC: 2.80312 cumulative IPC: 2.81139 (Simulation time: 0 hr 3 min 34 sec) 
Heartbeat CPU 0 instructions: 100000001 cycles: 35555652 heartbeat IPC: 2.82242 cumulative IPC: 2.81249 (Simulation time: 0 hr 3 min 58 sec) 

Warmup complete CPU 0 instructions: 100000001 cycles: 35555652 (Simulation time: 0 hr 3 min 58 sec) 

Heartbeat CPU 0 instructions: 110000000 cycles: 66677040 heartbeat IPC: 0.321322 cumulative IPC: 0.321322 (Simulation time: 0 hr 4 min 15 sec) 
Heartbeat CPU 0 instructions: 120000000 cycles: 109540475 heartbeat IPC: 0.233299 cumulative IPC: 0.270326 (Simulation time: 0 hr 4 min 33 sec) 
Heartbeat CPU 0 instructions: 130000001 cycles: 154405542 heartbeat IPC: 0.222891 cumulative IPC: 0.252419 (Simulation time: 0 hr 4 min 51 sec) 
Heartbeat CPU 0 instructions: 140000000 cycles: 185332566 heartbeat IPC: 0.323342 cumulative IPC: 0.267064 (Simulation time: 0 hr 5 min 8 sec) 
Heartbeat CPU 0 instructions: 150000001 cycles: 213787538 heartbeat IPC: 0.351432 cumulative IPC: 0.280533 (Simulation time: 0 hr 5 min 26 sec) 
Heartbeat CPU 0 instructions: 160000000 cycles: 241948754 heartbeat IPC: 0.355098 cumulative IPC: 0.290707 (Simulation time: 0 hr 5 min 43 sec) 
Heartbeat CPU 0 instructions: 170000000 cycles: 276011796 heartbeat IPC: 0.293573 cumulative IPC: 0.291113 (Simulation time: 0 hr 6 min 0 sec) 
Heartbeat CPU 0 instructions: 180000000 cycles: 315300199 heartbeat IPC: 0.254528 cumulative IPC: 0.285975 (Simulation time: 0 hr 6 min 18 sec) 
Heartbeat CPU 0 instructions: 190000000 cycles: 357090050 heartbeat IPC: 0.239293 cumulative IPC: 0.279908 (Simulation time: 0 hr 6 min 36 sec) 
Heartbeat CPU 0 instructions: 200000001 cycles: 398150171 heartbeat IPC: 0.243545 cumulative IPC: 0.27579 (Simulation time: 0 hr 6 min 54 sec) 
Heartbeat CPU 0 instructions: 210000002 cycles: 432121058 heartbeat IPC: 0.29437 cumulative IPC: 0.277382 (Simulation time: 0 hr 7 min 11 sec) 
Heartbeat CPU 0 instructions: 220000000 cycles: 459620677 heartbeat IPC: 0.363641 cumulative IPC: 0.282975 (Simulation time: 0 hr 7 min 28 sec) 
Heartbeat CPU 0 instructions: 230000001 cycles: 488621150 heartbeat IPC: 0.344822 cumulative IPC: 0.286934 (Simulation time: 0 hr 7 min 45 sec) 
Heartbeat CPU 0 instructions: 240000000 cycles: 516073605 heartbeat IPC: 0.364266 cumulative IPC: 0.291352 (Simulation time: 0 hr 8 min 2 sec) 
Heartbeat CPU 0 instructions: 250000003 cycles: 546217098 heartbeat IPC: 0.331747 cumulative IPC: 0.293737 (Simulation time: 0 hr 8 min 20 sec) 
Heartbeat CPU 0 instructions: 260000002 cycles: 589091082 heartbeat IPC: 0.233242 cumulative IPC: 0.289051 (Simulation time: 0 hr 8 min 37 sec) 
Heartbeat CPU 0 instructions: 270000000 cycles: 626187253 heartbeat IPC: 0.26957 cumulative IPC: 0.287827 (Simulation time: 0 hr 8 min 55 sec) 
Heartbeat CPU 0 instructions: 280000003 cycles: 654207046 heartbeat IPC: 0.356891 cumulative IPC: 0.290955 (Simulation time: 0 hr 9 min 12 sec) 
Heartbeat CPU 0 instructions: 290000001 cycles: 688085359 heartbeat IPC: 0.295174 cumulative IPC: 0.291174 (Simulation time: 0 hr 9 min 30 sec) 
Heartbeat CPU 0 instructions: 300000002 cycles: 723194564 heartbeat IPC: 0.284826 cumulative IPC: 0.29085 (Simulation time: 0 hr 9 min 47 sec) 
Heartbeat CPU 0 instructions: 310000003 cycles: 761099298 heartbeat IPC: 0.263819 cumulative IPC: 0.289438 (Simulation time: 0 hr 10 min 4 sec) 
Heartbeat CPU 0 instructions: 320000001 cycles: 794518013 heartbeat IPC: 0.299233 cumulative IPC: 0.289869 (Simulation time: 0 hr 10 min 21 sec) 
Heartbeat CPU 0 instructions: 330000000 cycles: 821769578 heartbeat IPC: 0.366951 cumulative IPC: 0.292541 (Simulation time: 0 hr 10 min 38 sec) 
Heartbeat CPU 0 instructions: 340000003 cycles: 856242866 heartbeat IPC: 0.29008 cumulative IPC: 0.292438 (Simulation time: 0 hr 10 min 55 sec) 
Heartbeat CPU 0 instructions: 350000001 cycles: 891888803 heartbeat IPC: 0.280537 cumulative IPC: 0.291942 (Simulation time: 0 hr 11 min 13 sec) 
Heartbeat CPU 0 instructions: 360000000 cycles: 933364039 heartbeat IPC: 0.241108 cumulative IPC: 0.289594 (Simulation time: 0 hr 11 min 31 sec) 
Heartbeat CPU 0 instructions: 370000000 cycles: 971867696 heartbeat IPC: 0.259716 cumulative IPC: 0.288365 (Simulation time: 0 hr 11 min 48 sec) 
Heartbeat CPU 0 instructions: 380000000 cycles: 1000209052 heartbeat IPC: 0.352841 cumulative IPC: 0.29026 (Simulation time: 0 hr 12 min 5 sec) 
Heartbeat CPU 0 instructions: 390000002 cycles: 1037578451 heartbeat IPC: 0.267599 cumulative IPC: 0.289415 (Simulation time: 0 hr 12 min 23 sec) 
Heartbeat CPU 0 instructions: 400000002 cycles: 1072328919 heartbeat IPC: 0.287766 cumulative IPC: 0.289359 (Simulation time: 0 hr 12 min 41 sec) 
Heartbeat CPU 0 instructions: 410000000 cycles: 1103972317 heartbeat IPC: 0.316022 cumulative IPC: 0.290149 (Simulation time: 0 hr 12 min 58 sec) 
Heartbeat CPU 0 instructions: 420000001 cycles: 1136697884 heartbeat IPC: 0.305572 cumulative IPC: 0.290607 (Simulation time: 0 hr 13 min 15 sec) 
Heartbeat CPU 0 instructions: 430000002 cycles: 1167307193 heartbeat IPC: 0.326698 cumulative IPC: 0.291583 (Simulation time: 0 hr 13 min 32 sec) 
Heartbeat CPU 0 instructions: 440000000 cycles: 1208753849 heartbeat IPC: 0.241274 cumulative IPC: 0.289806 (Simulation time: 0 hr 13 min 50 sec) 
Heartbeat CPU 0 instructions: 450000000 cycles: 1249256572 heartbeat IPC: 0.246897 cumulative IPC: 0.288374 (Simulation time: 0 hr 14 min 8 sec) 
Heartbeat CPU 0 instructions: 460000000 cycles: 1286331864 heartbeat IPC: 0.269721 cumulative IPC: 0.287821 (Simulation time: 0 hr 14 min 26 sec) 
Heartbeat CPU 0 instructions: 470000000 cycles: 1319279847 heartbeat IPC: 0.303509 cumulative IPC: 0.288224 (Simulation time: 0 hr 14 min 43 sec) 
Heartbeat CPU 0 instructions: 480000002 cycles: 1348406165 heartbeat IPC: 0.343332 cumulative IPC: 0.289447 (Simulation time: 0 hr 15 min 0 sec) 
Heartbeat CPU 0 instructions: 490000000 cycles: 1376083373 heartbeat IPC: 0.361308 cumulative IPC: 0.29093 (Simulation time: 0 hr 15 min 17 sec) 
Heartbeat CPU 0 instructions: 500000001 cycles: 1403547609 heartbeat IPC: 0.36411 cumulative IPC: 0.292399 (Simulation time: 0 hr 15 min 34 sec) 
Heartbeat CPU 0 instructions: 510000001 cycles: 1429003081 heartbeat IPC: 0.392843 cumulative IPC: 0.294234 (Simulation time: 0 hr 15 min 50 sec) 
Heartbeat CPU 0 instructions: 520000002 cycles: 1457300787 heartbeat IPC: 0.353386 cumulative IPC: 0.295412 (Simulation time: 0 hr 16 min 7 sec) 
Heartbeat CPU 0 instructions: 530000002 cycles: 1487152939 heartbeat IPC: 0.334984 cumulative IPC: 0.296225 (Simulation time: 0 hr 16 min 24 sec) 
Heartbeat CPU 0 instructions: 540000003 cycles: 1518139163 heartbeat IPC: 0.322724 cumulative IPC: 0.296779 (Simulation time: 0 hr 16 min 41 sec) 
Heartbeat CPU 0 instructions: 550000000 cycles: 1557270787 heartbeat IPC: 0.255548 cumulative IPC: 0.295719 (Simulation time: 0 hr 16 min 59 sec) 
Heartbeat CPU 0 instructions: 560000003 cycles: 1599654512 heartbeat IPC: 0.23594 cumulative IPC: 0.294099 (Simulation time: 0 hr 17 min 17 sec) 
Heartbeat CPU 0 instructions: 570000002 cycles: 1640208441 heartbeat IPC: 0.246585 cumulative IPC: 0.292898 (Simulation time: 0 hr 17 min 35 sec) 
Heartbeat CPU 0 instructions: 580000001 cycles: 1668339318 heartbeat IPC: 0.355481 cumulative IPC: 0.293976 (Simulation time: 0 hr 17 min 53 sec) 
Heartbeat CPU 0 instructions: 590000000 cycles: 1696435352 heartbeat IPC: 0.355922 cumulative IPC: 0.295024 (Simulation time: 0 hr 18 min 10 sec) 
Heartbeat CPU 0 instructions: 600000001 cycles: 1725499342 heartbeat IPC: 0.344068 cumulative IPC: 0.295868 (Simulation time: 0 hr 18 min 27 sec) 
Heartbeat CPU 0 instructions: 610000001 cycles: 1752587422 heartbeat IPC: 0.369166 cumulative IPC: 0.297024 (Simulation time: 0 hr 18 min 44 sec) 
Heartbeat CPU 0 instructions: 620000000 cycles: 1778816898 heartbeat IPC: 0.38125 cumulative IPC: 0.298292 (Simulation time: 0 hr 19 min 0 sec) 
Heartbeat CPU 0 instructions: 630000003 cycles: 1805032286 heartbeat IPC: 0.381455 cumulative IPC: 0.299524 (Simulation time: 0 hr 19 min 17 sec) 
Heartbeat CPU 0 instructions: 640000001 cycles: 1832349847 heartbeat IPC: 0.366065 cumulative IPC: 0.300535 (Simulation time: 0 hr 19 min 33 sec) 
Heartbeat CPU 0 instructions: 650000000 cycles: 1859613143 heartbeat IPC: 0.366793 cumulative IPC: 0.301526 (Simulation time: 0 hr 19 min 50 sec) 
Heartbeat CPU 0 instructions: 660000000 cycles: 1887425623 heartbeat IPC: 0.359551 cumulative IPC: 0.302397 (Simulation time: 0 hr 20 min 6 sec) 
Heartbeat CPU 0 instructions: 670000000 cycles: 1917376515 heartbeat IPC: 0.33388 cumulative IPC: 0.302898 (Simulation time: 0 hr 20 min 23 sec) 
Heartbeat CPU 0 instructions: 680000001 cycles: 1943932754 heartbeat IPC: 0.376559 cumulative IPC: 0.303923 (Simulation time: 0 hr 20 min 39 sec) 
Heartbeat CPU 0 instructions: 690000000 cycles: 1982390926 heartbeat IPC: 0.260023 cumulative IPC: 0.303056 (Simulation time: 0 hr 20 min 57 sec) 
Heartbeat CPU 0 instructions: 700000001 cycles: 2023070205 heartbeat IPC: 0.245825 cumulative IPC: 0.301885 (Simulation time: 0 hr 21 min 14 sec) 
Heartbeat CPU 0 instructions: 710000000 cycles: 2062060550 heartbeat IPC: 0.256474 cumulative IPC: 0.301011 (Simulation time: 0 hr 21 min 32 sec) 
Heartbeat CPU 0 instructions: 720000001 cycles: 2098620879 heartbeat IPC: 0.273521 cumulative IPC: 0.300524 (Simulation time: 0 hr 21 min 49 sec) 
Heartbeat CPU 0 instructions: 730000001 cycles: 2141381968 heartbeat IPC: 0.233857 cumulative IPC: 0.29917 (Simulation time: 0 hr 22 min 7 sec) 
Heartbeat CPU 0 instructions: 740000000 cycles: 2179993387 heartbeat IPC: 0.258991 cumulative IPC: 0.298447 (Simulation time: 0 hr 22 min 24 sec) 
Heartbeat CPU 0 instructions: 750000000 cycles: 2216779493 heartbeat IPC: 0.271842 cumulative IPC: 0.297998 (Simulation time: 0 hr 22 min 41 sec) 
Heartbeat CPU 0 instructions: 760000001 cycles: 2258011365 heartbeat IPC: 0.242531 cumulative IPC: 0.296969 (Simulation time: 0 hr 22 min 59 sec) 
Heartbeat CPU 0 instructions: 770000000 cycles: 2302625004 heartbeat IPC: 0.224147 cumulative IPC: 0.295536 (Simulation time: 0 hr 23 min 16 sec) 
Heartbeat CPU 0 instructions: 780000000 cycles: 2346155513 heartbeat IPC: 0.229724 cumulative IPC: 0.294296 (Simulation time: 0 hr 23 min 34 sec) 
Heartbeat CPU 0 instructions: 790000001 cycles: 2391493138 heartbeat IPC: 0.220567 cumulative IPC: 0.292877 (Simulation time: 0 hr 23 min 52 sec) 
Heartbeat CPU 0 instructions: 800000000 cycles: 2420545712 heartbeat IPC: 0.344204 cumulative IPC: 0.293502 (Simulation time: 0 hr 24 min 9 sec) 
Heartbeat CPU 0 instructions: 810000000 cycles: 2452935678 heartbeat IPC: 0.308738 cumulative IPC: 0.293706 (Simulation time: 0 hr 24 min 26 sec) 
Heartbeat CPU 0 instructions: 820000001 cycles: 2478874600 heartbeat IPC: 0.385521 cumulative IPC: 0.294681 (Simulation time: 0 hr 24 min 43 sec) 
Heartbeat CPU 0 instructions: 830000000 cycles: 2507500810 heartbeat IPC: 0.34933 cumulative IPC: 0.295314 (Simulation time: 0 hr 25 min 0 sec) 
Heartbeat CPU 0 instructions: 840000000 cycles: 2536323744 heartbeat IPC: 0.346946 cumulative IPC: 0.295909 (Simulation time: 0 hr 25 min 17 sec) 
Heartbeat CPU 0 instructions: 850000002 cycles: 2572021369 heartbeat IPC: 0.280131 cumulative IPC: 0.295687 (Simulation time: 0 hr 25 min 34 sec) 
Heartbeat CPU 0 instructions: 860000000 cycles: 2601536879 heartbeat IPC: 0.338805 cumulative IPC: 0.296183 (Simulation time: 0 hr 25 min 51 sec) 
Heartbeat CPU 0 instructions: 870000001 cycles: 2633938270 heartbeat IPC: 0.308629 cumulative IPC: 0.296338 (Simulation time: 0 hr 26 min 8 sec) 
Heartbeat CPU 0 instructions: 880000000 cycles: 2660443692 heartbeat IPC: 0.377281 cumulative IPC: 0.297156 (Simulation time: 0 hr 26 min 25 sec) 
Heartbeat CPU 0 instructions: 890000001 cycles: 2687761541 heartbeat IPC: 0.366061 cumulative IPC: 0.297865 (Simulation time: 0 hr 26 min 41 sec) 
Heartbeat CPU 0 instructions: 900000002 cycles: 2716141392 heartbeat IPC: 0.352363 cumulative IPC: 0.298442 (Simulation time: 0 hr 26 min 58 sec) 
Heartbeat CPU 0 instructions: 910000000 cycles: 2742432829 heartbeat IPC: 0.380352 cumulative IPC: 0.299238 (Simulation time: 0 hr 27 min 15 sec) 
Heartbeat CPU 0 instructions: 920000000 cycles: 2769697431 heartbeat IPC: 0.366776 cumulative IPC: 0.299911 (Simulation time: 0 hr 27 min 31 sec) 
Heartbeat CPU 0 instructions: 930000000 cycles: 2799128987 heartbeat IPC: 0.339771 cumulative IPC: 0.300336 (Simulation time: 0 hr 27 min 48 sec) 
Heartbeat CPU 0 instructions: 940000003 cycles: 2830050435 heartbeat IPC: 0.3234 cumulative IPC: 0.300591 (Simulation time: 0 hr 28 min 5 sec) 
Heartbeat CPU 0 instructions: 950000003 cycles: 2876363026 heartbeat IPC: 0.215924 cumulative IPC: 0.299211 (Simulation time: 0 hr 28 min 23 sec) 
Heartbeat CPU 0 instructions: 960000003 cycles: 2922266150 heartbeat IPC: 0.21785 cumulative IPC: 0.297917 (Simulation time: 0 hr 28 min 42 sec) 
Heartbeat CPU 0 instructions: 970000001 cycles: 2968708309 heartbeat IPC: 0.215322 cumulative IPC: 0.296609 (Simulation time: 0 hr 29 min 2 sec) 
Heartbeat CPU 0 instructions: 980000003 cycles: 3016024494 heartbeat IPC: 0.211344 cumulative IPC: 0.295256 (Simulation time: 0 hr 29 min 22 sec) 
Heartbeat CPU 0 instructions: 990000000 cycles: 3061905130 heartbeat IPC: 0.217957 cumulative IPC: 0.294084 (Simulation time: 0 hr 29 min 42 sec) 
Heartbeat CPU 0 instructions: 1000000000 cycles: 3106711057 heartbeat IPC: 0.223185 cumulative IPC: 0.293049 (Simulation time: 0 hr 30 min 2 sec) 
Heartbeat CPU 0 instructions: 1010000003 cycles: 3155003296 heartbeat IPC: 0.207073 cumulative IPC: 0.291718 (Simulation time: 0 hr 30 min 22 sec) 
Heartbeat CPU 0 instructions: 1020000000 cycles: 3189627506 heartbeat IPC: 0.288815 cumulative IPC: 0.291686 (Simulation time: 0 hr 30 min 41 sec) 
Heartbeat CPU 0 instructions: 1030000000 cycles: 3223166438 heartbeat IPC: 0.298161 cumulative IPC: 0.291755 (Simulation time: 0 hr 31 min 0 sec) 
Heartbeat CPU 0 instructions: 1040000000 cycles: 3263821406 heartbeat IPC: 0.245972 cumulative IPC: 0.291178 (Simulation time: 0 hr 31 min 20 sec) 
Heartbeat CPU 0 instructions: 1050000000 cycles: 3293000331 heartbeat IPC: 0.342713 cumulative IPC: 0.29164 (Simulation time: 0 hr 31 min 39 sec) 
Heartbeat CPU 0 instructions: 1060000003 cycles: 3319370897 heartbeat IPC: 0.379211 cumulative IPC: 0.292343 (Simulation time: 0 hr 31 min 58 sec) 
Heartbeat CPU 0 instructions: 1070000000 cycles: 3346779910 heartbeat IPC: 0.364843 cumulative IPC: 0.292943 (Simulation time: 0 hr 32 min 16 sec) 
Heartbeat CPU 0 instructions: 1080000000 cycles: 3379219516 heartbeat IPC: 0.308265 cumulative IPC: 0.293092 (Simulation time: 0 hr 32 min 35 sec) 
Heartbeat CPU 0 instructions: 1090000001 cycles: 3417943851 heartbeat IPC: 0.258236 cumulative IPC: 0.292693 (Simulation time: 0 hr 32 min 55 sec) 
Heartbeat CPU 0 instructions: 1100000000 cycles: 3457098980 heartbeat IPC: 0.255394 cumulative IPC: 0.292266 (Simulation time: 0 hr 33 min 15 sec) 
Finished CPU 0 instructions: 1000000000 cycles: 3421543335 cumulative IPC: 0.292266 (Simulation time: 0 hr 33 min 15 sec) 

ChampSim completed all CPUs

Region of Interest Statistics

CPU 0 cumulative IPC: 0.292266 instructions: 1000000000 cycles: 3421543335
L1D TOTAL     ACCESS:  258657308  HIT:  229032035  MISS:   29625273
L1D LOAD      ACCESS:  216210223  HIT:  187033011  MISS:   29177212
L1D RFO       ACCESS:   42447085  HIT:   41999024  MISS:     448061
L1D PREFETCH  ACCESS:          0  HIT:          0  MISS:          0
L1D WRITEBACK ACCESS:          0  HIT:          0  MISS:          0
L1D PREFETCH  REQUESTED:          0  ISSUED:          0  USEFUL:          0  USELESS:          0
L1D AVERAGE MISS LATENCY: 61.3534 cycles
L1I TOTAL     ACCESS:  197683266  HIT:  197683254  MISS:         12
L1I LOAD      ACCESS:  197683266  HIT:  197683254  MISS:         12
L1I RFO       ACCESS:          0  HIT:          0  MISS:          0
L1I PREFETCH  ACCESS:          0  HIT:          0  MISS:          0
L1I WRITEBACK ACCESS:          0  HIT:          0  MISS:          0
L1I PREFETCH  REQUESTED:          0  ISSUED:          0  USEFUL:          0  USELESS:          0
L1I AVERAGE MISS LATENCY: 218.417 cycles
L2C TOTAL     ACCESS:   39304163  HIT:   18207743  MISS:   21096420
L2C LOAD      ACCESS:   29176627  HIT:    8240214  MISS:   20936413
L2C RFO       ACCESS:     447981  HIT:     289202  MISS:     158779
L2C PREFETCH  ACCESS:          0  HIT:          0  MISS:          0
L2C WRITEBACK ACCESS:    9679555  HIT:    9678327  MISS:       1228
L2C PREFETCH  REQUESTED:          0  ISSUED:          0  USEFUL:          0  USELESS:          0
L2C AVERAGE MISS LATENCY: 64.6844 cycles
LLC TOTAL     ACCESS:   28172229  HIT:   24978516  MISS:    3193713
LLC LOAD      ACCESS:   20935733  HIT:   18107348  MISS:    2828385
LLC RFO       ACCESS:     158765  HIT:     155786  MISS:       2979
LLC PREFETCH  ACCESS:          0  HIT:          0  MISS:          0
LLC WRITEBACK ACCESS:    7077731  HIT:    6715382  MISS:     362349
LLC PREFETCH  REQUESTED:          0  ISSUED:          0  USEFUL:          0  USELESS:          0
LLC AVERAGE MISS LATENCY: 150.825 cycles
Major fault: 0 Minor fault: 6231
==============================
Perceptron RRIP Stats:
   Num Updates:          742526
   Num Primary Trains:   33965
   Num Secondary Trains: 32582
==============================
primary_perceptron #0: 3 -3 -3 -1 1 3 3 -1 -3 -1 5 3 -1 -3 -3 1 
secondary_perceptron #0: 2 0 -2 2 0 4 4 -2 -2 -2 6 -2 0 -2 2 -2 0 0 0 4 0 


DRAM Statistics
 CHANNEL 0
 RQ ROW_BUFFER_HIT:     506083  ROW_BUFFER_MISS:    2324983
 DBUS_CONGESTED:      97460
 WQ ROW_BUFFER_HIT:      52621  ROW_BUFFER_MISS:    1496749  FULL:          0

 AVG_CONGESTED_CYCLE: 5

CPU 0 Branch Prediction Accuracy: 72.3402% MPKI: 52.2267 Average ROB Occupancy at Mispredict: 4.95078

Branch types
NOT_BRANCH: 811181313 81.1181%
BRANCH_DIRECT_JUMP: 63895 0.0063895%
BRANCH_INDIRECT: 0 0%
BRANCH_CONDITIONAL: 188708919 18.8709%
BRANCH_DIRECT_CALL: 22746 0.0022746%
BRANCH_INDIRECT_CALL: 0 0%
BRANCH_RETURN: 22746 0.0022746%
BRANCH_OTHER: 0 0%

