
*** ChampSim Multicore Out-of-Order Simulator ***

Warmup Instructions: 100000000
Simulation Instructions: 1000000000
Number of CPUs: 1
LLC sets: 2048
LLC ways: 16
Off-chip DRAM Size: 4096 MB Channels: 1 Width: 64-bit Data Rate: 3200 MT/s

CPU 0 runs /scratch/user/kevin.weston/dpc3-traces/473.champsimtrace.xz
CPU 0 Bimodal branch predictor
Initialize SRRIP state
Heartbeat CPU 0 instructions: 10000002 cycles: 3575430 heartbeat IPC: 2.79687 cumulative IPC: 2.79687 (Simulation time: 0 hr 0 min 24 sec) 
Heartbeat CPU 0 instructions: 20000002 cycles: 7111223 heartbeat IPC: 2.82822 cumulative IPC: 2.81246 (Simulation time: 0 hr 0 min 48 sec) 
Heartbeat CPU 0 instructions: 30000001 cycles: 10661979 heartbeat IPC: 2.8163 cumulative IPC: 2.81374 (Simulation time: 0 hr 1 min 12 sec) 
Heartbeat CPU 0 instructions: 40000001 cycles: 14226466 heartbeat IPC: 2.80545 cumulative IPC: 2.81166 (Simulation time: 0 hr 1 min 35 sec) 
Heartbeat CPU 0 instructions: 50000003 cycles: 17786912 heartbeat IPC: 2.80864 cumulative IPC: 2.81106 (Simulation time: 0 hr 1 min 59 sec) 
Heartbeat CPU 0 instructions: 60000000 cycles: 21333361 heartbeat IPC: 2.81972 cumulative IPC: 2.8125 (Simulation time: 0 hr 2 min 23 sec) 
Heartbeat CPU 0 instructions: 70000002 cycles: 24884132 heartbeat IPC: 2.81629 cumulative IPC: 2.81304 (Simulation time: 0 hr 2 min 47 sec) 
Heartbeat CPU 0 instructions: 80000001 cycles: 28442653 heartbeat IPC: 2.81016 cumulative IPC: 2.81268 (Simulation time: 0 hr 3 min 11 sec) 
Heartbeat CPU 0 instructions: 90000001 cycles: 32010077 heartbeat IPC: 2.80314 cumulative IPC: 2.81161 (Simulation time: 0 hr 3 min 35 sec) 
Heartbeat CPU 0 instructions: 100000001 cycles: 35552921 heartbeat IPC: 2.82259 cumulative IPC: 2.81271 (Simulation time: 0 hr 3 min 59 sec) 

Warmup complete CPU 0 instructions: 100000001 cycles: 35552921 (Simulation time: 0 hr 3 min 59 sec) 

Heartbeat CPU 0 instructions: 110000000 cycles: 65902305 heartbeat IPC: 0.329496 cumulative IPC: 0.329496 (Simulation time: 0 hr 4 min 17 sec) 
Heartbeat CPU 0 instructions: 120000000 cycles: 108470932 heartbeat IPC: 0.234915 cumulative IPC: 0.274281 (Simulation time: 0 hr 4 min 34 sec) 
Heartbeat CPU 0 instructions: 130000001 cycles: 152723017 heartbeat IPC: 0.225978 cumulative IPC: 0.256038 (Simulation time: 0 hr 4 min 52 sec) 
Heartbeat CPU 0 instructions: 140000000 cycles: 182823689 heartbeat IPC: 0.332218 cumulative IPC: 0.271609 (Simulation time: 0 hr 5 min 9 sec) 
Heartbeat CPU 0 instructions: 150000001 cycles: 210035230 heartbeat IPC: 0.367491 cumulative IPC: 0.286562 (Simulation time: 0 hr 5 min 26 sec) 
Heartbeat CPU 0 instructions: 160000000 cycles: 237774991 heartbeat IPC: 0.360493 cumulative IPC: 0.296704 (Simulation time: 0 hr 5 min 43 sec) 
Heartbeat CPU 0 instructions: 170000000 cycles: 271394154 heartbeat IPC: 0.297449 cumulative IPC: 0.29681 (Simulation time: 0 hr 6 min 1 sec) 
Heartbeat CPU 0 instructions: 180000000 cycles: 310311703 heartbeat IPC: 0.256953 cumulative IPC: 0.291164 (Simulation time: 0 hr 6 min 18 sec) 
Heartbeat CPU 0 instructions: 190000000 cycles: 351859302 heartbeat IPC: 0.240688 cumulative IPC: 0.284534 (Simulation time: 0 hr 6 min 36 sec) 
Heartbeat CPU 0 instructions: 200000001 cycles: 392626339 heartbeat IPC: 0.245296 cumulative IPC: 0.280054 (Simulation time: 0 hr 6 min 54 sec) 
Heartbeat CPU 0 instructions: 210000002 cycles: 425908708 heartbeat IPC: 0.300459 cumulative IPC: 0.281794 (Simulation time: 0 hr 7 min 11 sec) 
Heartbeat CPU 0 instructions: 220000000 cycles: 452693145 heartbeat IPC: 0.373351 cumulative IPC: 0.287673 (Simulation time: 0 hr 7 min 28 sec) 
Heartbeat CPU 0 instructions: 230000001 cycles: 480776125 heartbeat IPC: 0.356088 cumulative IPC: 0.291988 (Simulation time: 0 hr 7 min 45 sec) 
Heartbeat CPU 0 instructions: 240000000 cycles: 507281392 heartbeat IPC: 0.377283 cumulative IPC: 0.296781 (Simulation time: 0 hr 8 min 1 sec) 
Heartbeat CPU 0 instructions: 250000003 cycles: 537053833 heartbeat IPC: 0.335881 cumulative IPC: 0.299102 (Simulation time: 0 hr 8 min 18 sec) 
Heartbeat CPU 0 instructions: 260000002 cycles: 579387610 heartbeat IPC: 0.236218 cumulative IPC: 0.294207 (Simulation time: 0 hr 8 min 36 sec) 
Heartbeat CPU 0 instructions: 270000000 cycles: 615929984 heartbeat IPC: 0.273655 cumulative IPC: 0.292913 (Simulation time: 0 hr 8 min 53 sec) 
Heartbeat CPU 0 instructions: 280000003 cycles: 642800409 heartbeat IPC: 0.372157 cumulative IPC: 0.29642 (Simulation time: 0 hr 9 min 10 sec) 
Heartbeat CPU 0 instructions: 290000001 cycles: 675927195 heartbeat IPC: 0.30187 cumulative IPC: 0.296701 (Simulation time: 0 hr 9 min 28 sec) 
Heartbeat CPU 0 instructions: 300000002 cycles: 710620046 heartbeat IPC: 0.288244 cumulative IPC: 0.296267 (Simulation time: 0 hr 9 min 45 sec) 
Heartbeat CPU 0 instructions: 310000003 cycles: 748073067 heartbeat IPC: 0.267001 cumulative IPC: 0.294729 (Simulation time: 0 hr 10 min 2 sec) 
Heartbeat CPU 0 instructions: 320000001 cycles: 781253739 heartbeat IPC: 0.30138 cumulative IPC: 0.295024 (Simulation time: 0 hr 10 min 19 sec) 
Heartbeat CPU 0 instructions: 330000000 cycles: 808286558 heartbeat IPC: 0.369921 cumulative IPC: 0.297645 (Simulation time: 0 hr 10 min 36 sec) 
Heartbeat CPU 0 instructions: 340000003 cycles: 842471021 heartbeat IPC: 0.292531 cumulative IPC: 0.297428 (Simulation time: 0 hr 10 min 53 sec) 
Heartbeat CPU 0 instructions: 350000001 cycles: 877251240 heartbeat IPC: 0.28752 cumulative IPC: 0.297019 (Simulation time: 0 hr 11 min 10 sec) 
Heartbeat CPU 0 instructions: 360000000 cycles: 918244995 heartbeat IPC: 0.24394 cumulative IPC: 0.294553 (Simulation time: 0 hr 11 min 28 sec) 
Heartbeat CPU 0 instructions: 370000000 cycles: 956239851 heartbeat IPC: 0.263194 cumulative IPC: 0.293259 (Simulation time: 0 hr 11 min 45 sec) 
Heartbeat CPU 0 instructions: 380000000 cycles: 984012820 heartbeat IPC: 0.360062 cumulative IPC: 0.295215 (Simulation time: 0 hr 12 min 2 sec) 
Heartbeat CPU 0 instructions: 390000002 cycles: 1019605702 heartbeat IPC: 0.280955 cumulative IPC: 0.2947 (Simulation time: 0 hr 12 min 19 sec) 
Heartbeat CPU 0 instructions: 400000002 cycles: 1053467982 heartbeat IPC: 0.295314 cumulative IPC: 0.29472 (Simulation time: 0 hr 12 min 36 sec) 
Heartbeat CPU 0 instructions: 410000000 cycles: 1084818561 heartbeat IPC: 0.318973 cumulative IPC: 0.295445 (Simulation time: 0 hr 12 min 53 sec) 
Heartbeat CPU 0 instructions: 420000001 cycles: 1117159250 heartbeat IPC: 0.309208 cumulative IPC: 0.295856 (Simulation time: 0 hr 13 min 10 sec) 
Heartbeat CPU 0 instructions: 430000002 cycles: 1147279843 heartbeat IPC: 0.331999 cumulative IPC: 0.296835 (Simulation time: 0 hr 13 min 27 sec) 
Heartbeat CPU 0 instructions: 440000000 cycles: 1188491336 heartbeat IPC: 0.242651 cumulative IPC: 0.294899 (Simulation time: 0 hr 13 min 45 sec) 
Heartbeat CPU 0 instructions: 450000000 cycles: 1228509616 heartbeat IPC: 0.249886 cumulative IPC: 0.293389 (Simulation time: 0 hr 14 min 3 sec) 
Heartbeat CPU 0 instructions: 460000000 cycles: 1264720996 heartbeat IPC: 0.276156 cumulative IPC: 0.292881 (Simulation time: 0 hr 14 min 20 sec) 
Heartbeat CPU 0 instructions: 470000000 cycles: 1297149039 heartbeat IPC: 0.308375 cumulative IPC: 0.293279 (Simulation time: 0 hr 14 min 37 sec) 
Heartbeat CPU 0 instructions: 480000002 cycles: 1325702464 heartbeat IPC: 0.350221 cumulative IPC: 0.29454 (Simulation time: 0 hr 14 min 54 sec) 
Heartbeat CPU 0 instructions: 490000000 cycles: 1352636234 heartbeat IPC: 0.371281 cumulative IPC: 0.296109 (Simulation time: 0 hr 15 min 11 sec) 
Heartbeat CPU 0 instructions: 500000001 cycles: 1379263056 heartbeat IPC: 0.375561 cumulative IPC: 0.297683 (Simulation time: 0 hr 15 min 27 sec) 
Heartbeat CPU 0 instructions: 510000001 cycles: 1404075390 heartbeat IPC: 0.403025 cumulative IPC: 0.299593 (Simulation time: 0 hr 15 min 44 sec) 
Heartbeat CPU 0 instructions: 520000002 cycles: 1431145158 heartbeat IPC: 0.369416 cumulative IPC: 0.300948 (Simulation time: 0 hr 16 min 0 sec) 
Heartbeat CPU 0 instructions: 530000002 cycles: 1460195562 heartbeat IPC: 0.344229 cumulative IPC: 0.30183 (Simulation time: 0 hr 16 min 17 sec) 
Heartbeat CPU 0 instructions: 540000003 cycles: 1489901892 heartbeat IPC: 0.336629 cumulative IPC: 0.302541 (Simulation time: 0 hr 16 min 34 sec) 
Heartbeat CPU 0 instructions: 550000000 cycles: 1528295251 heartbeat IPC: 0.260462 cumulative IPC: 0.301459 (Simulation time: 0 hr 16 min 52 sec) 
Heartbeat CPU 0 instructions: 560000003 cycles: 1570008918 heartbeat IPC: 0.23973 cumulative IPC: 0.299781 (Simulation time: 0 hr 17 min 10 sec) 
Heartbeat CPU 0 instructions: 570000002 cycles: 1610254909 heartbeat IPC: 0.248472 cumulative IPC: 0.298469 (Simulation time: 0 hr 17 min 27 sec) 
Heartbeat CPU 0 instructions: 580000001 cycles: 1637988189 heartbeat IPC: 0.360578 cumulative IPC: 0.299544 (Simulation time: 0 hr 17 min 45 sec) 
Heartbeat CPU 0 instructions: 590000000 cycles: 1665165324 heartbeat IPC: 0.367956 cumulative IPC: 0.300685 (Simulation time: 0 hr 18 min 1 sec) 
Heartbeat CPU 0 instructions: 600000001 cycles: 1693612029 heartbeat IPC: 0.351535 cumulative IPC: 0.301557 (Simulation time: 0 hr 18 min 18 sec) 
Heartbeat CPU 0 instructions: 610000001 cycles: 1720411378 heartbeat IPC: 0.373143 cumulative IPC: 0.302696 (Simulation time: 0 hr 18 min 35 sec) 
Heartbeat CPU 0 instructions: 620000000 cycles: 1745949586 heartbeat IPC: 0.39157 cumulative IPC: 0.304023 (Simulation time: 0 hr 18 min 51 sec) 
Heartbeat CPU 0 instructions: 630000003 cycles: 1771582138 heartbeat IPC: 0.390129 cumulative IPC: 0.305294 (Simulation time: 0 hr 19 min 8 sec) 
Heartbeat CPU 0 instructions: 640000001 cycles: 1798300540 heartbeat IPC: 0.374274 cumulative IPC: 0.30634 (Simulation time: 0 hr 19 min 25 sec) 
Heartbeat CPU 0 instructions: 650000000 cycles: 1824820473 heartbeat IPC: 0.377075 cumulative IPC: 0.307388 (Simulation time: 0 hr 19 min 41 sec) 
Heartbeat CPU 0 instructions: 660000000 cycles: 1851372355 heartbeat IPC: 0.376621 cumulative IPC: 0.308401 (Simulation time: 0 hr 19 min 58 sec) 
Heartbeat CPU 0 instructions: 670000000 cycles: 1880428397 heartbeat IPC: 0.344162 cumulative IPC: 0.308964 (Simulation time: 0 hr 20 min 15 sec) 
Heartbeat CPU 0 instructions: 680000001 cycles: 1906415676 heartbeat IPC: 0.384804 cumulative IPC: 0.310017 (Simulation time: 0 hr 20 min 32 sec) 
Heartbeat CPU 0 instructions: 690000000 cycles: 1944649134 heartbeat IPC: 0.261551 cumulative IPC: 0.309047 (Simulation time: 0 hr 20 min 49 sec) 
Heartbeat CPU 0 instructions: 700000001 cycles: 1985005437 heartbeat IPC: 0.247793 cumulative IPC: 0.307779 (Simulation time: 0 hr 21 min 6 sec) 
Heartbeat CPU 0 instructions: 710000000 cycles: 2023552447 heartbeat IPC: 0.259423 cumulative IPC: 0.306841 (Simulation time: 0 hr 21 min 24 sec) 
Heartbeat CPU 0 instructions: 720000001 cycles: 2059586750 heartbeat IPC: 0.277513 cumulative IPC: 0.306319 (Simulation time: 0 hr 21 min 41 sec) 
Heartbeat CPU 0 instructions: 730000001 cycles: 2101970189 heartbeat IPC: 0.235941 cumulative IPC: 0.304875 (Simulation time: 0 hr 21 min 59 sec) 
Heartbeat CPU 0 instructions: 740000000 cycles: 2140208638 heartbeat IPC: 0.261517 cumulative IPC: 0.304088 (Simulation time: 0 hr 22 min 16 sec) 
Heartbeat CPU 0 instructions: 750000000 cycles: 2176684293 heartbeat IPC: 0.274155 cumulative IPC: 0.303578 (Simulation time: 0 hr 22 min 33 sec) 
Heartbeat CPU 0 instructions: 760000001 cycles: 2217735010 heartbeat IPC: 0.243601 cumulative IPC: 0.30245 (Simulation time: 0 hr 22 min 51 sec) 
Heartbeat CPU 0 instructions: 770000000 cycles: 2262112352 heartbeat IPC: 0.22534 cumulative IPC: 0.300913 (Simulation time: 0 hr 23 min 8 sec) 
Heartbeat CPU 0 instructions: 780000000 cycles: 2305113204 heartbeat IPC: 0.232554 cumulative IPC: 0.299617 (Simulation time: 0 hr 23 min 26 sec) 
Heartbeat CPU 0 instructions: 790000001 cycles: 2349103310 heartbeat IPC: 0.227324 cumulative IPC: 0.298243 (Simulation time: 0 hr 23 min 44 sec) 
Heartbeat CPU 0 instructions: 800000000 cycles: 2377226899 heartbeat IPC: 0.355573 cumulative IPC: 0.298931 (Simulation time: 0 hr 24 min 0 sec) 
Heartbeat CPU 0 instructions: 810000000 cycles: 2408396144 heartbeat IPC: 0.320829 cumulative IPC: 0.299219 (Simulation time: 0 hr 24 min 18 sec) 
Heartbeat CPU 0 instructions: 820000001 cycles: 2434004022 heartbeat IPC: 0.390505 cumulative IPC: 0.300194 (Simulation time: 0 hr 24 min 34 sec) 
Heartbeat CPU 0 instructions: 830000000 cycles: 2461903591 heartbeat IPC: 0.358428 cumulative IPC: 0.300863 (Simulation time: 0 hr 24 min 51 sec) 
Heartbeat CPU 0 instructions: 840000000 cycles: 2490182807 heartbeat IPC: 0.353617 cumulative IPC: 0.301471 (Simulation time: 0 hr 25 min 8 sec) 
Heartbeat CPU 0 instructions: 850000002 cycles: 2525360763 heartbeat IPC: 0.284269 cumulative IPC: 0.301228 (Simulation time: 0 hr 25 min 25 sec) 
Heartbeat CPU 0 instructions: 860000000 cycles: 2554489234 heartbeat IPC: 0.343307 cumulative IPC: 0.301715 (Simulation time: 0 hr 25 min 42 sec) 
Heartbeat CPU 0 instructions: 870000001 cycles: 2585973446 heartbeat IPC: 0.31762 cumulative IPC: 0.301911 (Simulation time: 0 hr 25 min 59 sec) 
Heartbeat CPU 0 instructions: 880000000 cycles: 2611679579 heartbeat IPC: 0.389012 cumulative IPC: 0.30278 (Simulation time: 0 hr 26 min 16 sec) 
Heartbeat CPU 0 instructions: 890000001 cycles: 2638664382 heartbeat IPC: 0.370579 cumulative IPC: 0.303483 (Simulation time: 0 hr 26 min 33 sec) 
Heartbeat CPU 0 instructions: 900000002 cycles: 2666715768 heartbeat IPC: 0.356489 cumulative IPC: 0.304048 (Simulation time: 0 hr 26 min 50 sec) 
Heartbeat CPU 0 instructions: 910000000 cycles: 2692613334 heartbeat IPC: 0.386137 cumulative IPC: 0.304848 (Simulation time: 0 hr 27 min 6 sec) 
Heartbeat CPU 0 instructions: 920000000 cycles: 2719301611 heartbeat IPC: 0.374696 cumulative IPC: 0.305543 (Simulation time: 0 hr 27 min 25 sec) 
Heartbeat CPU 0 instructions: 930000000 cycles: 2747915631 heartbeat IPC: 0.349479 cumulative IPC: 0.306006 (Simulation time: 0 hr 27 min 42 sec) 
Heartbeat CPU 0 instructions: 940000003 cycles: 2778406429 heartbeat IPC: 0.327968 cumulative IPC: 0.30625 (Simulation time: 0 hr 28 min 0 sec) 
Heartbeat CPU 0 instructions: 950000003 cycles: 2824204569 heartbeat IPC: 0.218349 cumulative IPC: 0.304807 (Simulation time: 0 hr 28 min 18 sec) 
Heartbeat CPU 0 instructions: 960000003 cycles: 2869760478 heartbeat IPC: 0.21951 cumulative IPC: 0.303436 (Simulation time: 0 hr 28 min 36 sec) 
Heartbeat CPU 0 instructions: 970000001 cycles: 2915975232 heartbeat IPC: 0.216381 cumulative IPC: 0.302039 (Simulation time: 0 hr 28 min 54 sec) 
Heartbeat CPU 0 instructions: 980000003 cycles: 2963137989 heartbeat IPC: 0.212032 cumulative IPC: 0.300589 (Simulation time: 0 hr 29 min 12 sec) 
Heartbeat CPU 0 instructions: 990000000 cycles: 3008823269 heartbeat IPC: 0.218889 cumulative IPC: 0.299334 (Simulation time: 0 hr 29 min 30 sec) 
Heartbeat CPU 0 instructions: 1000000000 cycles: 3053383442 heartbeat IPC: 0.224416 cumulative IPC: 0.298227 (Simulation time: 0 hr 29 min 48 sec) 
Heartbeat CPU 0 instructions: 1010000003 cycles: 3101522580 heartbeat IPC: 0.207731 cumulative IPC: 0.296807 (Simulation time: 0 hr 30 min 7 sec) 
Heartbeat CPU 0 instructions: 1020000000 cycles: 3135656266 heartbeat IPC: 0.292966 cumulative IPC: 0.296764 (Simulation time: 0 hr 30 min 25 sec) 
Heartbeat CPU 0 instructions: 1030000000 cycles: 3168145510 heartbeat IPC: 0.307794 cumulative IPC: 0.296879 (Simulation time: 0 hr 30 min 42 sec) 
Heartbeat CPU 0 instructions: 1040000000 cycles: 3207446570 heartbeat IPC: 0.254446 cumulative IPC: 0.296353 (Simulation time: 0 hr 31 min 0 sec) 
Heartbeat CPU 0 instructions: 1050000000 cycles: 3236303673 heartbeat IPC: 0.346535 cumulative IPC: 0.296805 (Simulation time: 0 hr 31 min 17 sec) 
Heartbeat CPU 0 instructions: 1060000003 cycles: 3262296941 heartbeat IPC: 0.384715 cumulative IPC: 0.297514 (Simulation time: 0 hr 31 min 34 sec) 
Heartbeat CPU 0 instructions: 1070000000 cycles: 3289200011 heartbeat IPC: 0.371705 cumulative IPC: 0.298127 (Simulation time: 0 hr 31 min 51 sec) 
Heartbeat CPU 0 instructions: 1080000000 cycles: 3320299521 heartbeat IPC: 0.321548 cumulative IPC: 0.298349 (Simulation time: 0 hr 32 min 8 sec) 
Heartbeat CPU 0 instructions: 1090000001 cycles: 3358039795 heartbeat IPC: 0.264969 cumulative IPC: 0.29797 (Simulation time: 0 hr 32 min 26 sec) 
Heartbeat CPU 0 instructions: 1100000000 cycles: 3396502429 heartbeat IPC: 0.259993 cumulative IPC: 0.297535 (Simulation time: 0 hr 32 min 44 sec) 
Finished CPU 0 instructions: 1000000000 cycles: 3360949515 cumulative IPC: 0.297535 (Simulation time: 0 hr 32 min 44 sec) 

ChampSim completed all CPUs

Region of Interest Statistics

CPU 0 cumulative IPC: 0.297535 instructions: 1000000000 cycles: 3360949515
L1D TOTAL     ACCESS:  258657729  HIT:  229032438  MISS:   29625291
L1D LOAD      ACCESS:  216211042  HIT:  187033806  MISS:   29177236
L1D RFO       ACCESS:   42446687  HIT:   41998632  MISS:     448055
L1D PREFETCH  ACCESS:          0  HIT:          0  MISS:          0
L1D WRITEBACK ACCESS:          0  HIT:          0  MISS:          0
L1D PREFETCH  REQUESTED:          0  ISSUED:          0  USEFUL:          0  USELESS:          0
L1D AVERAGE MISS LATENCY: 58.9663 cycles
L1I TOTAL     ACCESS:  197682545  HIT:  197682533  MISS:         12
L1I LOAD      ACCESS:  197682545  HIT:  197682533  MISS:         12
L1I RFO       ACCESS:          0  HIT:          0  MISS:          0
L1I PREFETCH  ACCESS:          0  HIT:          0  MISS:          0
L1I WRITEBACK ACCESS:          0  HIT:          0  MISS:          0
L1I PREFETCH  REQUESTED:          0  ISSUED:          0  USEFUL:          0  USELESS:          0
L1I AVERAGE MISS LATENCY: 218.417 cycles
L2C TOTAL     ACCESS:   39304177  HIT:   18262022  MISS:   21042155
L2C LOAD      ACCESS:   29176648  HIT:    8297795  MISS:   20878853
L2C RFO       ACCESS:     447977  HIT:     286110  MISS:     161867
L2C PREFETCH  ACCESS:          0  HIT:          0  MISS:          0
L2C WRITEBACK ACCESS:    9679552  HIT:    9678117  MISS:       1435
L2C PREFETCH  REQUESTED:          0  ISSUED:          0  USEFUL:          0  USELESS:          0
L2C AVERAGE MISS LATENCY: 61.4889 cycles
LLC TOTAL     ACCESS:   28115837  HIT:   25665410  MISS:    2450427
LLC LOAD      ACCESS:   20878154  HIT:   18510744  MISS:    2367410
LLC RFO       ACCESS:     161851  HIT:     159184  MISS:       2667
LLC PREFETCH  ACCESS:          0  HIT:          0  MISS:          0
LLC WRITEBACK ACCESS:    7075832  HIT:    6995482  MISS:      80350
LLC PREFETCH  REQUESTED:          0  ISSUED:          0  USEFUL:          0  USELESS:          0
LLC AVERAGE MISS LATENCY: 168.231 cycles
Major fault: 0 Minor fault: 6231

DRAM Statistics
 CHANNEL 0
 RQ ROW_BUFFER_HIT:     331583  ROW_BUFFER_MISS:    2038483
 DBUS_CONGESTED:      82471
 WQ ROW_BUFFER_HIT:      38401  ROW_BUFFER_MISS:    1373246  FULL:          0

 AVG_CONGESTED_CYCLE: 5

CPU 0 Branch Prediction Accuracy: 72.3402% MPKI: 52.2267 Average ROB Occupancy at Mispredict: 4.94734

Branch types
NOT_BRANCH: 811181313 81.1181%
BRANCH_DIRECT_JUMP: 63895 0.0063895%
BRANCH_INDIRECT: 0 0%
BRANCH_CONDITIONAL: 188708919 18.8709%
BRANCH_DIRECT_CALL: 22746 0.0022746%
BRANCH_INDIRECT_CALL: 0 0%
BRANCH_RETURN: 22746 0.0022746%
BRANCH_OTHER: 0 0%

