
*** ChampSim Multicore Out-of-Order Simulator ***

Warmup Instructions: 100000000
Simulation Instructions: 1000000000
Number of CPUs: 1
LLC sets: 2048
LLC ways: 16
Off-chip DRAM Size: 4096 MB Channels: 1 Width: 64-bit Data Rate: 3200 MT/s

CPU 0 runs /scratch/user/kevin.weston/dpc3-traces/473.champsimtrace.xz
CPU 0 Bimodal branch predictor
Initialize RRPV
Initialize PRRIP state
Heartbeat CPU 0 instructions: 10000002 cycles: 3575417 heartbeat IPC: 2.79688 cumulative IPC: 2.79688 (Simulation time: 0 hr 0 min 25 sec) 
Heartbeat CPU 0 instructions: 20000002 cycles: 7111226 heartbeat IPC: 2.82821 cumulative IPC: 2.81245 (Simulation time: 0 hr 0 min 49 sec) 
Heartbeat CPU 0 instructions: 30000001 cycles: 10661914 heartbeat IPC: 2.81636 cumulative IPC: 2.81375 (Simulation time: 0 hr 1 min 14 sec) 
Heartbeat CPU 0 instructions: 40000001 cycles: 14226520 heartbeat IPC: 2.80536 cumulative IPC: 2.81165 (Simulation time: 0 hr 1 min 38 sec) 
Heartbeat CPU 0 instructions: 50000003 cycles: 17787145 heartbeat IPC: 2.8085 cumulative IPC: 2.81102 (Simulation time: 0 hr 2 min 2 sec) 
Heartbeat CPU 0 instructions: 60000000 cycles: 21333765 heartbeat IPC: 2.81959 cumulative IPC: 2.81244 (Simulation time: 0 hr 2 min 27 sec) 
Heartbeat CPU 0 instructions: 70000002 cycles: 24884760 heartbeat IPC: 2.81611 cumulative IPC: 2.81297 (Simulation time: 0 hr 2 min 51 sec) 
Heartbeat CPU 0 instructions: 80000001 cycles: 28443408 heartbeat IPC: 2.81006 cumulative IPC: 2.8126 (Simulation time: 0 hr 3 min 16 sec) 
Heartbeat CPU 0 instructions: 90000001 cycles: 32010901 heartbeat IPC: 2.80309 cumulative IPC: 2.81154 (Simulation time: 0 hr 3 min 40 sec) 
Heartbeat CPU 0 instructions: 100000001 cycles: 35553835 heartbeat IPC: 2.82252 cumulative IPC: 2.81264 (Simulation time: 0 hr 4 min 5 sec) 

Warmup complete CPU 0 instructions: 100000001 cycles: 35553835 (Simulation time: 0 hr 4 min 5 sec) 

Heartbeat CPU 0 instructions: 110000000 cycles: 66135527 heartbeat IPC: 0.326993 cumulative IPC: 0.326993 (Simulation time: 0 hr 4 min 24 sec) 
Heartbeat CPU 0 instructions: 120000000 cycles: 108838383 heartbeat IPC: 0.234176 cumulative IPC: 0.272909 (Simulation time: 0 hr 4 min 43 sec) 
Heartbeat CPU 0 instructions: 130000001 cycles: 153199910 heartbeat IPC: 0.225421 cumulative IPC: 0.255002 (Simulation time: 0 hr 5 min 3 sec) 
Heartbeat CPU 0 instructions: 140000000 cycles: 183418218 heartbeat IPC: 0.330925 cumulative IPC: 0.270518 (Simulation time: 0 hr 5 min 22 sec) 
Heartbeat CPU 0 instructions: 150000001 cycles: 210835920 heartbeat IPC: 0.364728 cumulative IPC: 0.285254 (Simulation time: 0 hr 5 min 40 sec) 
Heartbeat CPU 0 instructions: 160000000 cycles: 238760757 heartbeat IPC: 0.358104 cumulative IPC: 0.295266 (Simulation time: 0 hr 5 min 59 sec) 
Heartbeat CPU 0 instructions: 170000000 cycles: 272602232 heartbeat IPC: 0.295495 cumulative IPC: 0.295298 (Simulation time: 0 hr 6 min 18 sec) 
Heartbeat CPU 0 instructions: 180000000 cycles: 311682023 heartbeat IPC: 0.255887 cumulative IPC: 0.289721 (Simulation time: 0 hr 6 min 38 sec) 
Heartbeat CPU 0 instructions: 190000000 cycles: 353344251 heartbeat IPC: 0.240026 cumulative IPC: 0.283206 (Simulation time: 0 hr 6 min 57 sec) 
Heartbeat CPU 0 instructions: 200000001 cycles: 394182162 heartbeat IPC: 0.244871 cumulative IPC: 0.27884 (Simulation time: 0 hr 7 min 16 sec) 
Heartbeat CPU 0 instructions: 210000002 cycles: 427509708 heartbeat IPC: 0.300052 cumulative IPC: 0.280644 (Simulation time: 0 hr 7 min 35 sec) 
Heartbeat CPU 0 instructions: 220000000 cycles: 454480336 heartbeat IPC: 0.370774 cumulative IPC: 0.286446 (Simulation time: 0 hr 7 min 53 sec) 
Heartbeat CPU 0 instructions: 230000001 cycles: 482979363 heartbeat IPC: 0.350889 cumulative IPC: 0.290551 (Simulation time: 0 hr 8 min 12 sec) 
Heartbeat CPU 0 instructions: 240000000 cycles: 509653033 heartbeat IPC: 0.374902 cumulative IPC: 0.295297 (Simulation time: 0 hr 8 min 30 sec) 
Heartbeat CPU 0 instructions: 250000003 cycles: 539596809 heartbeat IPC: 0.333959 cumulative IPC: 0.297594 (Simulation time: 0 hr 8 min 49 sec) 
Heartbeat CPU 0 instructions: 260000002 cycles: 582075047 heartbeat IPC: 0.235415 cumulative IPC: 0.292761 (Simulation time: 0 hr 9 min 8 sec) 
Heartbeat CPU 0 instructions: 270000000 cycles: 618746440 heartbeat IPC: 0.272692 cumulative IPC: 0.291499 (Simulation time: 0 hr 9 min 27 sec) 
Heartbeat CPU 0 instructions: 280000003 cycles: 646035893 heartbeat IPC: 0.366442 cumulative IPC: 0.294849 (Simulation time: 0 hr 9 min 45 sec) 
Heartbeat CPU 0 instructions: 290000001 cycles: 679378417 heartbeat IPC: 0.299917 cumulative IPC: 0.295111 (Simulation time: 0 hr 10 min 4 sec) 
Heartbeat CPU 0 instructions: 300000002 cycles: 714167158 heartbeat IPC: 0.287449 cumulative IPC: 0.294719 (Simulation time: 0 hr 10 min 23 sec) 
Heartbeat CPU 0 instructions: 310000003 cycles: 751698892 heartbeat IPC: 0.266441 cumulative IPC: 0.293237 (Simulation time: 0 hr 10 min 42 sec) 
Heartbeat CPU 0 instructions: 320000001 cycles: 784897518 heartbeat IPC: 0.301217 cumulative IPC: 0.29359 (Simulation time: 0 hr 11 min 0 sec) 
Heartbeat CPU 0 instructions: 330000000 cycles: 811971219 heartbeat IPC: 0.369362 cumulative IPC: 0.296232 (Simulation time: 0 hr 11 min 19 sec) 
Heartbeat CPU 0 instructions: 340000003 cycles: 846275913 heartbeat IPC: 0.291505 cumulative IPC: 0.296032 (Simulation time: 0 hr 11 min 37 sec) 
Heartbeat CPU 0 instructions: 350000001 cycles: 881160073 heartbeat IPC: 0.286663 cumulative IPC: 0.295646 (Simulation time: 0 hr 11 min 56 sec) 
Heartbeat CPU 0 instructions: 360000000 cycles: 922197093 heartbeat IPC: 0.243682 cumulative IPC: 0.293241 (Simulation time: 0 hr 12 min 15 sec) 
Heartbeat CPU 0 instructions: 370000000 cycles: 960258161 heartbeat IPC: 0.262736 cumulative IPC: 0.291985 (Simulation time: 0 hr 12 min 34 sec) 
Heartbeat CPU 0 instructions: 380000000 cycles: 988189411 heartbeat IPC: 0.358022 cumulative IPC: 0.293921 (Simulation time: 0 hr 12 min 53 sec) 
Heartbeat CPU 0 instructions: 390000002 cycles: 1023957240 heartbeat IPC: 0.279581 cumulative IPC: 0.293402 (Simulation time: 0 hr 13 min 12 sec) 
Heartbeat CPU 0 instructions: 400000002 cycles: 1057960032 heartbeat IPC: 0.294093 cumulative IPC: 0.293425 (Simulation time: 0 hr 13 min 32 sec) 
Heartbeat CPU 0 instructions: 410000000 cycles: 1089403808 heartbeat IPC: 0.318028 cumulative IPC: 0.29416 (Simulation time: 0 hr 13 min 51 sec) 
Heartbeat CPU 0 instructions: 420000001 cycles: 1121866795 heartbeat IPC: 0.308043 cumulative IPC: 0.294574 (Simulation time: 0 hr 14 min 10 sec) 
Heartbeat CPU 0 instructions: 430000002 cycles: 1152094626 heartbeat IPC: 0.330821 cumulative IPC: 0.295556 (Simulation time: 0 hr 14 min 29 sec) 
Heartbeat CPU 0 instructions: 440000000 cycles: 1193361721 heartbeat IPC: 0.242324 cumulative IPC: 0.293658 (Simulation time: 0 hr 14 min 49 sec) 
Heartbeat CPU 0 instructions: 450000000 cycles: 1233486273 heartbeat IPC: 0.249224 cumulative IPC: 0.29217 (Simulation time: 0 hr 15 min 8 sec) 
Heartbeat CPU 0 instructions: 460000000 cycles: 1269808598 heartbeat IPC: 0.275313 cumulative IPC: 0.291674 (Simulation time: 0 hr 15 min 27 sec) 
Heartbeat CPU 0 instructions: 470000000 cycles: 1302324475 heartbeat IPC: 0.307542 cumulative IPC: 0.292081 (Simulation time: 0 hr 15 min 46 sec) 
Heartbeat CPU 0 instructions: 480000002 cycles: 1331088460 heartbeat IPC: 0.347657 cumulative IPC: 0.293315 (Simulation time: 0 hr 16 min 4 sec) 
Heartbeat CPU 0 instructions: 490000000 cycles: 1358164946 heartbeat IPC: 0.369324 cumulative IPC: 0.294871 (Simulation time: 0 hr 16 min 22 sec) 
Heartbeat CPU 0 instructions: 500000001 cycles: 1385039666 heartbeat IPC: 0.372097 cumulative IPC: 0.296409 (Simulation time: 0 hr 16 min 39 sec) 
Heartbeat CPU 0 instructions: 510000001 cycles: 1409926632 heartbeat IPC: 0.401817 cumulative IPC: 0.298318 (Simulation time: 0 hr 16 min 56 sec) 
Heartbeat CPU 0 instructions: 520000002 cycles: 1437320525 heartbeat IPC: 0.365045 cumulative IPC: 0.299622 (Simulation time: 0 hr 17 min 14 sec) 
Heartbeat CPU 0 instructions: 530000002 cycles: 1466533308 heartbeat IPC: 0.342316 cumulative IPC: 0.300493 (Simulation time: 0 hr 17 min 33 sec) 
Heartbeat CPU 0 instructions: 540000003 cycles: 1496541124 heartbeat IPC: 0.333247 cumulative IPC: 0.301166 (Simulation time: 0 hr 17 min 52 sec) 
Heartbeat CPU 0 instructions: 550000000 cycles: 1535106751 heartbeat IPC: 0.259298 cumulative IPC: 0.300089 (Simulation time: 0 hr 18 min 11 sec) 
Heartbeat CPU 0 instructions: 560000003 cycles: 1576938368 heartbeat IPC: 0.239054 cumulative IPC: 0.298433 (Simulation time: 0 hr 18 min 31 sec) 
Heartbeat CPU 0 instructions: 570000002 cycles: 1617254813 heartbeat IPC: 0.248038 cumulative IPC: 0.297148 (Simulation time: 0 hr 18 min 51 sec) 
Heartbeat CPU 0 instructions: 580000001 cycles: 1645140655 heartbeat IPC: 0.358605 cumulative IPC: 0.298213 (Simulation time: 0 hr 19 min 9 sec) 
Heartbeat CPU 0 instructions: 590000000 cycles: 1672502553 heartbeat IPC: 0.365472 cumulative IPC: 0.299337 (Simulation time: 0 hr 19 min 28 sec) 
Heartbeat CPU 0 instructions: 600000001 cycles: 1701084614 heartbeat IPC: 0.34987 cumulative IPC: 0.300205 (Simulation time: 0 hr 19 min 46 sec) 
Heartbeat CPU 0 instructions: 610000001 cycles: 1728011396 heartbeat IPC: 0.371377 cumulative IPC: 0.301337 (Simulation time: 0 hr 20 min 4 sec) 
Heartbeat CPU 0 instructions: 620000000 cycles: 1753842934 heartbeat IPC: 0.387124 cumulative IPC: 0.302627 (Simulation time: 0 hr 20 min 22 sec) 
Heartbeat CPU 0 instructions: 630000003 cycles: 1779821078 heartbeat IPC: 0.384939 cumulative IPC: 0.303853 (Simulation time: 0 hr 20 min 40 sec) 
Heartbeat CPU 0 instructions: 640000001 cycles: 1806810756 heartbeat IPC: 0.370512 cumulative IPC: 0.304868 (Simulation time: 0 hr 20 min 58 sec) 
Heartbeat CPU 0 instructions: 650000000 cycles: 1833551745 heartbeat IPC: 0.373958 cumulative IPC: 0.305896 (Simulation time: 0 hr 21 min 17 sec) 
Heartbeat CPU 0 instructions: 660000000 cycles: 1860453364 heartbeat IPC: 0.371725 cumulative IPC: 0.306866 (Simulation time: 0 hr 21 min 35 sec) 
Heartbeat CPU 0 instructions: 670000000 cycles: 1889823340 heartbeat IPC: 0.340484 cumulative IPC: 0.307399 (Simulation time: 0 hr 21 min 53 sec) 
Heartbeat CPU 0 instructions: 680000001 cycles: 1916031552 heartbeat IPC: 0.38156 cumulative IPC: 0.308432 (Simulation time: 0 hr 22 min 12 sec) 
Heartbeat CPU 0 instructions: 690000000 cycles: 1954408529 heartbeat IPC: 0.260573 cumulative IPC: 0.307475 (Simulation time: 0 hr 22 min 31 sec) 
Heartbeat CPU 0 instructions: 700000001 cycles: 1994914095 heartbeat IPC: 0.24688 cumulative IPC: 0.306222 (Simulation time: 0 hr 22 min 50 sec) 
Heartbeat CPU 0 instructions: 710000000 cycles: 2033588494 heartbeat IPC: 0.258569 cumulative IPC: 0.3053 (Simulation time: 0 hr 23 min 9 sec) 
Heartbeat CPU 0 instructions: 720000001 cycles: 2069735299 heartbeat IPC: 0.27665 cumulative IPC: 0.304791 (Simulation time: 0 hr 23 min 27 sec) 
Heartbeat CPU 0 instructions: 730000001 cycles: 2112185213 heartbeat IPC: 0.235572 cumulative IPC: 0.303376 (Simulation time: 0 hr 23 min 47 sec) 
Heartbeat CPU 0 instructions: 740000000 cycles: 2150504229 heartbeat IPC: 0.260967 cumulative IPC: 0.302608 (Simulation time: 0 hr 24 min 6 sec) 
Heartbeat CPU 0 instructions: 750000000 cycles: 2187069195 heartbeat IPC: 0.273486 cumulative IPC: 0.302113 (Simulation time: 0 hr 24 min 24 sec) 
Heartbeat CPU 0 instructions: 760000001 cycles: 2228162409 heartbeat IPC: 0.243349 cumulative IPC: 0.301011 (Simulation time: 0 hr 24 min 44 sec) 
Heartbeat CPU 0 instructions: 770000000 cycles: 2272585616 heartbeat IPC: 0.225108 cumulative IPC: 0.299504 (Simulation time: 0 hr 25 min 3 sec) 
Heartbeat CPU 0 instructions: 780000000 cycles: 2315790461 heartbeat IPC: 0.231456 cumulative IPC: 0.298215 (Simulation time: 0 hr 25 min 22 sec) 
Heartbeat CPU 0 instructions: 790000001 cycles: 2359855522 heartbeat IPC: 0.226937 cumulative IPC: 0.296863 (Simulation time: 0 hr 25 min 42 sec) 
Heartbeat CPU 0 instructions: 800000000 cycles: 2388109002 heartbeat IPC: 0.353939 cumulative IPC: 0.297549 (Simulation time: 0 hr 26 min 0 sec) 
Heartbeat CPU 0 instructions: 810000000 cycles: 2419539971 heartbeat IPC: 0.318158 cumulative IPC: 0.297821 (Simulation time: 0 hr 26 min 19 sec) 
Heartbeat CPU 0 instructions: 820000001 cycles: 2445236684 heartbeat IPC: 0.389155 cumulative IPC: 0.298795 (Simulation time: 0 hr 26 min 37 sec) 
Heartbeat CPU 0 instructions: 830000000 cycles: 2473234623 heartbeat IPC: 0.357169 cumulative IPC: 0.299465 (Simulation time: 0 hr 26 min 55 sec) 
Heartbeat CPU 0 instructions: 840000000 cycles: 2501658894 heartbeat IPC: 0.351812 cumulative IPC: 0.300068 (Simulation time: 0 hr 27 min 14 sec) 
Heartbeat CPU 0 instructions: 850000002 cycles: 2536979381 heartbeat IPC: 0.283122 cumulative IPC: 0.299829 (Simulation time: 0 hr 27 min 33 sec) 
Heartbeat CPU 0 instructions: 860000000 cycles: 2566251737 heartbeat IPC: 0.341619 cumulative IPC: 0.300312 (Simulation time: 0 hr 27 min 51 sec) 
Heartbeat CPU 0 instructions: 870000001 cycles: 2598012286 heartbeat IPC: 0.314856 cumulative IPC: 0.300493 (Simulation time: 0 hr 28 min 10 sec) 
Heartbeat CPU 0 instructions: 880000000 cycles: 2623992905 heartbeat IPC: 0.384902 cumulative IPC: 0.30134 (Simulation time: 0 hr 28 min 28 sec) 
Heartbeat CPU 0 instructions: 890000001 cycles: 2651184474 heartbeat IPC: 0.367761 cumulative IPC: 0.30203 (Simulation time: 0 hr 28 min 46 sec) 
Heartbeat CPU 0 instructions: 900000002 cycles: 2679391997 heartbeat IPC: 0.354515 cumulative IPC: 0.30259 (Simulation time: 0 hr 29 min 5 sec) 
Heartbeat CPU 0 instructions: 910000000 cycles: 2705426465 heartbeat IPC: 0.384106 cumulative IPC: 0.303385 (Simulation time: 0 hr 29 min 23 sec) 
Heartbeat CPU 0 instructions: 920000000 cycles: 2732322237 heartbeat IPC: 0.371806 cumulative IPC: 0.304068 (Simulation time: 0 hr 29 min 41 sec) 
Heartbeat CPU 0 instructions: 930000000 cycles: 2761073014 heartbeat IPC: 0.347817 cumulative IPC: 0.304529 (Simulation time: 0 hr 30 min 0 sec) 
Heartbeat CPU 0 instructions: 940000003 cycles: 2791731549 heartbeat IPC: 0.326174 cumulative IPC: 0.30477 (Simulation time: 0 hr 30 min 18 sec) 
Heartbeat CPU 0 instructions: 950000003 cycles: 2837646368 heartbeat IPC: 0.217795 cumulative IPC: 0.303345 (Simulation time: 0 hr 30 min 38 sec) 
Heartbeat CPU 0 instructions: 960000003 cycles: 2883266329 heartbeat IPC: 0.219202 cumulative IPC: 0.301997 (Simulation time: 0 hr 30 min 57 sec) 
Heartbeat CPU 0 instructions: 970000001 cycles: 2929500813 heartbeat IPC: 0.216289 cumulative IPC: 0.300627 (Simulation time: 0 hr 31 min 16 sec) 
Heartbeat CPU 0 instructions: 980000003 cycles: 2976738832 heartbeat IPC: 0.211694 cumulative IPC: 0.299199 (Simulation time: 0 hr 31 min 36 sec) 
Heartbeat CPU 0 instructions: 990000000 cycles: 3022456057 heartbeat IPC: 0.218736 cumulative IPC: 0.297968 (Simulation time: 0 hr 31 min 56 sec) 
Heartbeat CPU 0 instructions: 1000000000 cycles: 3067045047 heartbeat IPC: 0.224271 cumulative IPC: 0.296884 (Simulation time: 0 hr 32 min 15 sec) 
Heartbeat CPU 0 instructions: 1010000003 cycles: 3115094366 heartbeat IPC: 0.20812 cumulative IPC: 0.295499 (Simulation time: 0 hr 32 min 35 sec) 
Heartbeat CPU 0 instructions: 1020000000 cycles: 3149260691 heartbeat IPC: 0.292686 cumulative IPC: 0.295468 (Simulation time: 0 hr 32 min 54 sec) 
Heartbeat CPU 0 instructions: 1030000000 cycles: 3181863660 heartbeat IPC: 0.306721 cumulative IPC: 0.295584 (Simulation time: 0 hr 33 min 12 sec) 
Heartbeat CPU 0 instructions: 1040000000 cycles: 3221380443 heartbeat IPC: 0.253057 cumulative IPC: 0.295057 (Simulation time: 0 hr 33 min 32 sec) 
Heartbeat CPU 0 instructions: 1050000000 cycles: 3250350005 heartbeat IPC: 0.34519 cumulative IPC: 0.295509 (Simulation time: 0 hr 33 min 50 sec) 
Heartbeat CPU 0 instructions: 1060000003 cycles: 3276480917 heartbeat IPC: 0.382689 cumulative IPC: 0.296212 (Simulation time: 0 hr 34 min 8 sec) 
Heartbeat CPU 0 instructions: 1070000000 cycles: 3303554379 heartbeat IPC: 0.369365 cumulative IPC: 0.296818 (Simulation time: 0 hr 34 min 26 sec) 
Heartbeat CPU 0 instructions: 1080000000 cycles: 3334862897 heartbeat IPC: 0.319402 cumulative IPC: 0.297032 (Simulation time: 0 hr 34 min 45 sec) 
Heartbeat CPU 0 instructions: 1090000001 cycles: 3372774450 heartbeat IPC: 0.263772 cumulative IPC: 0.296654 (Simulation time: 0 hr 35 min 4 sec) 
Heartbeat CPU 0 instructions: 1100000000 cycles: 3411369187 heartbeat IPC: 0.259103 cumulative IPC: 0.296225 (Simulation time: 0 hr 35 min 23 sec) 
Finished CPU 0 instructions: 1000000000 cycles: 3375815359 cumulative IPC: 0.296225 (Simulation time: 0 hr 35 min 23 sec) 

ChampSim completed all CPUs

Region of Interest Statistics

CPU 0 cumulative IPC: 0.296225 instructions: 1000000000 cycles: 3375815359
L1D TOTAL     ACCESS:  258658548  HIT:  229033265  MISS:   29625283
L1D LOAD      ACCESS:  216211970  HIT:  187034740  MISS:   29177230
L1D RFO       ACCESS:   42446578  HIT:   41998525  MISS:     448053
L1D PREFETCH  ACCESS:          0  HIT:          0  MISS:          0
L1D WRITEBACK ACCESS:          0  HIT:          0  MISS:          0
L1D PREFETCH  REQUESTED:          0  ISSUED:          0  USEFUL:          0  USELESS:          0
L1D AVERAGE MISS LATENCY: 59.5164 cycles
L1I TOTAL     ACCESS:  197682730  HIT:  197682718  MISS:         12
L1I LOAD      ACCESS:  197682730  HIT:  197682718  MISS:         12
L1I RFO       ACCESS:          0  HIT:          0  MISS:          0
L1I PREFETCH  ACCESS:          0  HIT:          0  MISS:          0
L1I WRITEBACK ACCESS:          0  HIT:          0  MISS:          0
L1I PREFETCH  REQUESTED:          0  ISSUED:          0  USEFUL:          0  USELESS:          0
L1I AVERAGE MISS LATENCY: 218.417 cycles
L2C TOTAL     ACCESS:   39304165  HIT:   18262028  MISS:   21042137
L2C LOAD      ACCESS:   29176642  HIT:    8297806  MISS:   20878836
L2C RFO       ACCESS:     447974  HIT:     286107  MISS:     161867
L2C PREFETCH  ACCESS:          0  HIT:          0  MISS:          0
L2C WRITEBACK ACCESS:    9679549  HIT:    9678115  MISS:       1434
L2C PREFETCH  REQUESTED:          0  ISSUED:          0  USEFUL:          0  USELESS:          0
L2C AVERAGE MISS LATENCY: 62.264 cycles
LLC TOTAL     ACCESS:   28115820  HIT:   25420990  MISS:    2694830
LLC LOAD      ACCESS:   20878140  HIT:   18391518  MISS:    2486622
LLC RFO       ACCESS:     161851  HIT:     158991  MISS:       2860
LLC PREFETCH  ACCESS:          0  HIT:          0  MISS:          0
LLC WRITEBACK ACCESS:    7075829  HIT:    6870481  MISS:     205348
LLC PREFETCH  REQUESTED:          0  ISSUED:          0  USEFUL:          0  USELESS:          0
LLC AVERAGE MISS LATENCY: 159.1 cycles
Major fault: 0 Minor fault: 6231
==============================
Perceptron RRIP Stats:
   Num Updates:          30787088
   Num Primary Trains:   683052
   Num Secondary Trains: 711450
==============================
tag_perceptron #0: 0 -2 4 2 0 2 -8 -2 6 2 0 4 0 0 -4 0 
set_perceptron #0: 2 -2 6 4 0 4 -8 -4 6 4 2 6 4 2 -6 -4 0 -2 2 2 2 


DRAM Statistics
 CHANNEL 0
 RQ ROW_BUFFER_HIT:     389903  ROW_BUFFER_MISS:    2099539
 DBUS_CONGESTED:      83269
 WQ ROW_BUFFER_HIT:      38177  ROW_BUFFER_MISS:    1393200  FULL:          0

 AVG_CONGESTED_CYCLE: 5

CPU 0 Branch Prediction Accuracy: 72.3402% MPKI: 52.2267 Average ROB Occupancy at Mispredict: 4.94828

Branch types
NOT_BRANCH: 811181313 81.1181%
BRANCH_DIRECT_JUMP: 63895 0.0063895%
BRANCH_INDIRECT: 0 0%
BRANCH_CONDITIONAL: 188708919 18.8709%
BRANCH_DIRECT_CALL: 22746 0.0022746%
BRANCH_INDIRECT_CALL: 0 0%
BRANCH_RETURN: 22746 0.0022746%
BRANCH_OTHER: 0 0%

