
*** ChampSim Multicore Out-of-Order Simulator ***

Warmup Instructions: 100000000
Simulation Instructions: 1000000000
Number of CPUs: 1
LLC sets: 2048
LLC ways: 16
Off-chip DRAM Size: 4096 MB Channels: 1 Width: 64-bit Data Rate: 3200 MT/s

CPU 0 runs /scratch/user/kevin.weston/dpc3-traces/482.champsimtrace.xz
CPU 0 Bimodal branch predictor
Heartbeat CPU 0 instructions: 10000000 cycles: 3498631 heartbeat IPC: 2.85826 cumulative IPC: 2.85826 (Simulation time: 0 hr 0 min 19 sec) 
Heartbeat CPU 0 instructions: 20000002 cycles: 6995112 heartbeat IPC: 2.86002 cumulative IPC: 2.85914 (Simulation time: 0 hr 0 min 38 sec) 
Heartbeat CPU 0 instructions: 30000002 cycles: 10501573 heartbeat IPC: 2.85188 cumulative IPC: 2.85672 (Simulation time: 0 hr 0 min 57 sec) 
Heartbeat CPU 0 instructions: 40000001 cycles: 13995334 heartbeat IPC: 2.86224 cumulative IPC: 2.8581 (Simulation time: 0 hr 1 min 16 sec) 
Heartbeat CPU 0 instructions: 50000002 cycles: 17433900 heartbeat IPC: 2.90819 cumulative IPC: 2.86798 (Simulation time: 0 hr 1 min 35 sec) 
Heartbeat CPU 0 instructions: 60000003 cycles: 20910779 heartbeat IPC: 2.87614 cumulative IPC: 2.86933 (Simulation time: 0 hr 1 min 54 sec) 
Heartbeat CPU 0 instructions: 70000001 cycles: 24327709 heartbeat IPC: 2.9266 cumulative IPC: 2.87738 (Simulation time: 0 hr 2 min 12 sec) 
Heartbeat CPU 0 instructions: 80000002 cycles: 27759793 heartbeat IPC: 2.91368 cumulative IPC: 2.88187 (Simulation time: 0 hr 2 min 31 sec) 
Heartbeat CPU 0 instructions: 90000001 cycles: 31203879 heartbeat IPC: 2.90353 cumulative IPC: 2.88426 (Simulation time: 0 hr 2 min 49 sec) 
Heartbeat CPU 0 instructions: 100000000 cycles: 34656128 heartbeat IPC: 2.89666 cumulative IPC: 2.88549 (Simulation time: 0 hr 3 min 8 sec) 

Warmup complete CPU 0 instructions: 100000004 cycles: 34656129 (Simulation time: 0 hr 3 min 8 sec) 

Heartbeat CPU 0 instructions: 110000000 cycles: 51144517 heartbeat IPC: 0.606487 cumulative IPC: 0.606487 (Simulation time: 0 hr 3 min 30 sec) 
Heartbeat CPU 0 instructions: 120000001 cycles: 67362702 heartbeat IPC: 0.616592 cumulative IPC: 0.611498 (Simulation time: 0 hr 3 min 52 sec) 
Heartbeat CPU 0 instructions: 130000000 cycles: 84488520 heartbeat IPC: 0.583914 cumulative IPC: 0.602018 (Simulation time: 0 hr 4 min 14 sec) 
Heartbeat CPU 0 instructions: 140000003 cycles: 101453080 heartbeat IPC: 0.589464 cumulative IPC: 0.59883 (Simulation time: 0 hr 4 min 37 sec) 
Heartbeat CPU 0 instructions: 150000002 cycles: 119088532 heartbeat IPC: 0.56704 cumulative IPC: 0.59219 (Simulation time: 0 hr 5 min 0 sec) 
Heartbeat CPU 0 instructions: 160000001 cycles: 136526342 heartbeat IPC: 0.573466 cumulative IPC: 0.588985 (Simulation time: 0 hr 5 min 22 sec) 
Heartbeat CPU 0 instructions: 170000000 cycles: 154041029 heartbeat IPC: 0.570949 cumulative IPC: 0.586339 (Simulation time: 0 hr 5 min 45 sec) 
Heartbeat CPU 0 instructions: 180000002 cycles: 171191693 heartbeat IPC: 0.583068 cumulative IPC: 0.585928 (Simulation time: 0 hr 6 min 7 sec) 
Heartbeat CPU 0 instructions: 190000000 cycles: 188302474 heartbeat IPC: 0.584427 cumulative IPC: 0.585761 (Simulation time: 0 hr 6 min 30 sec) 
Heartbeat CPU 0 instructions: 200000000 cycles: 205452752 heartbeat IPC: 0.583081 cumulative IPC: 0.585492 (Simulation time: 0 hr 6 min 52 sec) 
Heartbeat CPU 0 instructions: 210000000 cycles: 222724056 heartbeat IPC: 0.578995 cumulative IPC: 0.584895 (Simulation time: 0 hr 7 min 15 sec) 
Heartbeat CPU 0 instructions: 220000000 cycles: 238564076 heartbeat IPC: 0.631312 cumulative IPC: 0.588501 (Simulation time: 0 hr 7 min 36 sec) 
Heartbeat CPU 0 instructions: 230000003 cycles: 254774637 heartbeat IPC: 0.616882 cumulative IPC: 0.590591 (Simulation time: 0 hr 7 min 59 sec) 
Heartbeat CPU 0 instructions: 240000003 cycles: 270912096 heartbeat IPC: 0.619676 cumulative IPC: 0.592578 (Simulation time: 0 hr 8 min 21 sec) 
Heartbeat CPU 0 instructions: 250000001 cycles: 287029537 heartbeat IPC: 0.620446 cumulative IPC: 0.594357 (Simulation time: 0 hr 8 min 43 sec) 
Heartbeat CPU 0 instructions: 260000003 cycles: 303179289 heartbeat IPC: 0.619205 cumulative IPC: 0.595852 (Simulation time: 0 hr 9 min 5 sec) 
Heartbeat CPU 0 instructions: 270000002 cycles: 320278798 heartbeat IPC: 0.584812 cumulative IPC: 0.595191 (Simulation time: 0 hr 9 min 27 sec) 
Heartbeat CPU 0 instructions: 280000001 cycles: 336777504 heartbeat IPC: 0.606108 cumulative IPC: 0.595787 (Simulation time: 0 hr 9 min 49 sec) 
Heartbeat CPU 0 instructions: 290000002 cycles: 353757054 heartbeat IPC: 0.588944 cumulative IPC: 0.595423 (Simulation time: 0 hr 10 min 12 sec) 
Heartbeat CPU 0 instructions: 300000002 cycles: 369937264 heartbeat IPC: 0.618039 cumulative IPC: 0.596514 (Simulation time: 0 hr 10 min 33 sec) 
Heartbeat CPU 0 instructions: 310000000 cycles: 386914372 heartbeat IPC: 0.589028 cumulative IPC: 0.596154 (Simulation time: 0 hr 10 min 56 sec) 
Heartbeat CPU 0 instructions: 320000000 cycles: 403460785 heartbeat IPC: 0.604361 cumulative IPC: 0.596522 (Simulation time: 0 hr 11 min 18 sec) 
Heartbeat CPU 0 instructions: 330000000 cycles: 420557775 heartbeat IPC: 0.584898 cumulative IPC: 0.596007 (Simulation time: 0 hr 11 min 40 sec) 
Heartbeat CPU 0 instructions: 340000000 cycles: 437712603 heartbeat IPC: 0.582926 cumulative IPC: 0.59545 (Simulation time: 0 hr 12 min 3 sec) 
Heartbeat CPU 0 instructions: 350000003 cycles: 454872681 heartbeat IPC: 0.582748 cumulative IPC: 0.594931 (Simulation time: 0 hr 12 min 25 sec) 
Heartbeat CPU 0 instructions: 360000001 cycles: 472134887 heartbeat IPC: 0.5793 cumulative IPC: 0.594315 (Simulation time: 0 hr 12 min 48 sec) 
Heartbeat CPU 0 instructions: 370000001 cycles: 489420241 heartbeat IPC: 0.578524 cumulative IPC: 0.593714 (Simulation time: 0 hr 13 min 10 sec) 
Heartbeat CPU 0 instructions: 380000003 cycles: 506573260 heartbeat IPC: 0.582988 cumulative IPC: 0.593324 (Simulation time: 0 hr 13 min 32 sec) 
Heartbeat CPU 0 instructions: 390000000 cycles: 524189412 heartbeat IPC: 0.567661 cumulative IPC: 0.592401 (Simulation time: 0 hr 13 min 55 sec) 
Heartbeat CPU 0 instructions: 400000000 cycles: 541446967 heartbeat IPC: 0.579456 cumulative IPC: 0.59196 (Simulation time: 0 hr 14 min 17 sec) 
Heartbeat CPU 0 instructions: 410000001 cycles: 558827547 heartbeat IPC: 0.575355 cumulative IPC: 0.59141 (Simulation time: 0 hr 14 min 40 sec) 
Heartbeat CPU 0 instructions: 420000000 cycles: 575497023 heartbeat IPC: 0.599899 cumulative IPC: 0.591671 (Simulation time: 0 hr 15 min 2 sec) 
Heartbeat CPU 0 instructions: 430000002 cycles: 592880370 heartbeat IPC: 0.575263 cumulative IPC: 0.59116 (Simulation time: 0 hr 15 min 24 sec) 
Heartbeat CPU 0 instructions: 440000000 cycles: 610167161 heartbeat IPC: 0.578476 cumulative IPC: 0.590779 (Simulation time: 0 hr 15 min 47 sec) 
Heartbeat CPU 0 instructions: 450000000 cycles: 627732045 heartbeat IPC: 0.569318 cumulative IPC: 0.590144 (Simulation time: 0 hr 16 min 9 sec) 
Heartbeat CPU 0 instructions: 460000000 cycles: 645351374 heartbeat IPC: 0.567559 cumulative IPC: 0.589492 (Simulation time: 0 hr 16 min 32 sec) 
Heartbeat CPU 0 instructions: 470000002 cycles: 662914464 heartbeat IPC: 0.569376 cumulative IPC: 0.58893 (Simulation time: 0 hr 16 min 55 sec) 
Heartbeat CPU 0 instructions: 480000000 cycles: 680027057 heartbeat IPC: 0.584365 cumulative IPC: 0.588809 (Simulation time: 0 hr 17 min 17 sec) 
Heartbeat CPU 0 instructions: 490000001 cycles: 697777506 heartbeat IPC: 0.563366 cumulative IPC: 0.588128 (Simulation time: 0 hr 17 min 40 sec) 
Heartbeat CPU 0 instructions: 500000003 cycles: 715251888 heartbeat IPC: 0.572266 cumulative IPC: 0.58772 (Simulation time: 0 hr 18 min 2 sec) 
Heartbeat CPU 0 instructions: 510000003 cycles: 732524604 heartbeat IPC: 0.578948 cumulative IPC: 0.587503 (Simulation time: 0 hr 18 min 25 sec) 
Heartbeat CPU 0 instructions: 520000001 cycles: 750301350 heartbeat IPC: 0.562533 cumulative IPC: 0.586883 (Simulation time: 0 hr 18 min 48 sec) 
Heartbeat CPU 0 instructions: 530000003 cycles: 767846007 heartbeat IPC: 0.569974 cumulative IPC: 0.586478 (Simulation time: 0 hr 19 min 10 sec) 
Heartbeat CPU 0 instructions: 540000002 cycles: 785081113 heartbeat IPC: 0.580211 cumulative IPC: 0.586334 (Simulation time: 0 hr 19 min 33 sec) 
Heartbeat CPU 0 instructions: 550000000 cycles: 802923137 heartbeat IPC: 0.560474 cumulative IPC: 0.585734 (Simulation time: 0 hr 19 min 55 sec) 
Heartbeat CPU 0 instructions: 560000001 cycles: 820510764 heartbeat IPC: 0.568582 cumulative IPC: 0.58535 (Simulation time: 0 hr 20 min 18 sec) 
Heartbeat CPU 0 instructions: 570000003 cycles: 837724989 heartbeat IPC: 0.580915 cumulative IPC: 0.585255 (Simulation time: 0 hr 20 min 40 sec) 
Heartbeat CPU 0 instructions: 580000000 cycles: 855557137 heartbeat IPC: 0.560785 cumulative IPC: 0.584723 (Simulation time: 0 hr 21 min 3 sec) 
Heartbeat CPU 0 instructions: 590000002 cycles: 873311093 heartbeat IPC: 0.563255 cumulative IPC: 0.584269 (Simulation time: 0 hr 21 min 26 sec) 
Heartbeat CPU 0 instructions: 600000000 cycles: 890431592 heartbeat IPC: 0.584095 cumulative IPC: 0.584265 (Simulation time: 0 hr 21 min 48 sec) 
Heartbeat CPU 0 instructions: 610000000 cycles: 907395210 heartbeat IPC: 0.589497 cumulative IPC: 0.584367 (Simulation time: 0 hr 22 min 10 sec) 
Heartbeat CPU 0 instructions: 620000003 cycles: 924462661 heartbeat IPC: 0.585911 cumulative IPC: 0.584397 (Simulation time: 0 hr 22 min 33 sec) 
Heartbeat CPU 0 instructions: 630000002 cycles: 942227663 heartbeat IPC: 0.562904 cumulative IPC: 0.583976 (Simulation time: 0 hr 22 min 55 sec) 
Heartbeat CPU 0 instructions: 640000000 cycles: 960029784 heartbeat IPC: 0.561731 cumulative IPC: 0.583548 (Simulation time: 0 hr 23 min 18 sec) 
Heartbeat CPU 0 instructions: 650000000 cycles: 977117574 heartbeat IPC: 0.585213 cumulative IPC: 0.583578 (Simulation time: 0 hr 23 min 40 sec) 
Heartbeat CPU 0 instructions: 660000000 cycles: 994891234 heartbeat IPC: 0.56263 cumulative IPC: 0.583191 (Simulation time: 0 hr 24 min 3 sec) 
Heartbeat CPU 0 instructions: 670000003 cycles: 1012591207 heartbeat IPC: 0.564973 cumulative IPC: 0.582861 (Simulation time: 0 hr 24 min 26 sec) 
Heartbeat CPU 0 instructions: 680000003 cycles: 1030381614 heartbeat IPC: 0.562101 cumulative IPC: 0.58249 (Simulation time: 0 hr 24 min 48 sec) 
Heartbeat CPU 0 instructions: 690000000 cycles: 1047307931 heartbeat IPC: 0.590796 cumulative IPC: 0.582629 (Simulation time: 0 hr 25 min 11 sec) 
Heartbeat CPU 0 instructions: 700000001 cycles: 1064890327 heartbeat IPC: 0.568751 cumulative IPC: 0.582392 (Simulation time: 0 hr 25 min 34 sec) 
Heartbeat CPU 0 instructions: 710000003 cycles: 1082129682 heartbeat IPC: 0.580068 cumulative IPC: 0.582354 (Simulation time: 0 hr 25 min 56 sec) 
Heartbeat CPU 0 instructions: 720000000 cycles: 1100017029 heartbeat IPC: 0.559054 cumulative IPC: 0.581962 (Simulation time: 0 hr 26 min 19 sec) 
Heartbeat CPU 0 instructions: 730000001 cycles: 1116938018 heartbeat IPC: 0.590982 cumulative IPC: 0.582103 (Simulation time: 0 hr 26 min 41 sec) 
Heartbeat CPU 0 instructions: 740000000 cycles: 1134348683 heartbeat IPC: 0.574361 cumulative IPC: 0.581981 (Simulation time: 0 hr 27 min 4 sec) 
Heartbeat CPU 0 instructions: 750000000 cycles: 1151652490 heartbeat IPC: 0.577908 cumulative IPC: 0.581918 (Simulation time: 0 hr 27 min 26 sec) 
Heartbeat CPU 0 instructions: 760000003 cycles: 1168912348 heartbeat IPC: 0.579379 cumulative IPC: 0.581879 (Simulation time: 0 hr 27 min 49 sec) 
Heartbeat CPU 0 instructions: 770000000 cycles: 1185105220 heartbeat IPC: 0.617555 cumulative IPC: 0.582381 (Simulation time: 0 hr 28 min 10 sec) 
Heartbeat CPU 0 instructions: 780000000 cycles: 1202184479 heartbeat IPC: 0.585505 cumulative IPC: 0.582427 (Simulation time: 0 hr 28 min 32 sec) 
Heartbeat CPU 0 instructions: 790000002 cycles: 1219342975 heartbeat IPC: 0.582802 cumulative IPC: 0.582432 (Simulation time: 0 hr 28 min 55 sec) 
Heartbeat CPU 0 instructions: 800000002 cycles: 1236504329 heartbeat IPC: 0.582705 cumulative IPC: 0.582436 (Simulation time: 0 hr 29 min 17 sec) 
Heartbeat CPU 0 instructions: 810000001 cycles: 1253645156 heartbeat IPC: 0.583402 cumulative IPC: 0.58245 (Simulation time: 0 hr 29 min 40 sec) 
Heartbeat CPU 0 instructions: 820000001 cycles: 1270658110 heartbeat IPC: 0.587787 cumulative IPC: 0.582523 (Simulation time: 0 hr 30 min 2 sec) 
Heartbeat CPU 0 instructions: 830000003 cycles: 1287668821 heartbeat IPC: 0.587865 cumulative IPC: 0.582596 (Simulation time: 0 hr 30 min 25 sec) 
Heartbeat CPU 0 instructions: 840000001 cycles: 1304528050 heartbeat IPC: 0.593147 cumulative IPC: 0.582736 (Simulation time: 0 hr 30 min 47 sec) 
Heartbeat CPU 0 instructions: 850000002 cycles: 1321011419 heartbeat IPC: 0.606672 cumulative IPC: 0.583043 (Simulation time: 0 hr 31 min 9 sec) 
Heartbeat CPU 0 instructions: 860000003 cycles: 1338152536 heartbeat IPC: 0.583393 cumulative IPC: 0.583047 (Simulation time: 0 hr 31 min 32 sec) 
Heartbeat CPU 0 instructions: 870000003 cycles: 1355108047 heartbeat IPC: 0.589779 cumulative IPC: 0.583134 (Simulation time: 0 hr 31 min 54 sec) 
Heartbeat CPU 0 instructions: 880000000 cycles: 1371245273 heartbeat IPC: 0.619685 cumulative IPC: 0.583575 (Simulation time: 0 hr 32 min 16 sec) 
Heartbeat CPU 0 instructions: 890000000 cycles: 1387555525 heartbeat IPC: 0.613111 cumulative IPC: 0.583931 (Simulation time: 0 hr 32 min 38 sec) 
Heartbeat CPU 0 instructions: 900000003 cycles: 1404590697 heartbeat IPC: 0.587021 cumulative IPC: 0.583969 (Simulation time: 0 hr 33 min 1 sec) 
Heartbeat CPU 0 instructions: 910000003 cycles: 1421542079 heartbeat IPC: 0.589922 cumulative IPC: 0.584042 (Simulation time: 0 hr 33 min 23 sec) 
Heartbeat CPU 0 instructions: 920000000 cycles: 1438569408 heartbeat IPC: 0.587291 cumulative IPC: 0.584082 (Simulation time: 0 hr 33 min 46 sec) 
Heartbeat CPU 0 instructions: 930000001 cycles: 1454881142 heartbeat IPC: 0.613056 cumulative IPC: 0.584414 (Simulation time: 0 hr 34 min 8 sec) 
Heartbeat CPU 0 instructions: 940000002 cycles: 1471994495 heartbeat IPC: 0.584339 cumulative IPC: 0.584414 (Simulation time: 0 hr 34 min 31 sec) 
Heartbeat CPU 0 instructions: 950000002 cycles: 1488923568 heartbeat IPC: 0.5907 cumulative IPC: 0.584487 (Simulation time: 0 hr 34 min 53 sec) 
Heartbeat CPU 0 instructions: 960000003 cycles: 1505598329 heartbeat IPC: 0.599709 cumulative IPC: 0.584659 (Simulation time: 0 hr 35 min 15 sec) 
Heartbeat CPU 0 instructions: 970000001 cycles: 1522220570 heartbeat IPC: 0.601603 cumulative IPC: 0.584849 (Simulation time: 0 hr 35 min 38 sec) 
Heartbeat CPU 0 instructions: 980000003 cycles: 1538210106 heartbeat IPC: 0.625409 cumulative IPC: 0.58528 (Simulation time: 0 hr 36 min 0 sec) 
Heartbeat CPU 0 instructions: 990000000 cycles: 1554907200 heartbeat IPC: 0.598906 cumulative IPC: 0.58543 (Simulation time: 0 hr 36 min 22 sec) 
Heartbeat CPU 0 instructions: 1000000000 cycles: 1571512302 heartbeat IPC: 0.602225 cumulative IPC: 0.585611 (Simulation time: 0 hr 36 min 44 sec) 
Heartbeat CPU 0 instructions: 1010000002 cycles: 1588522519 heartbeat IPC: 0.587882 cumulative IPC: 0.585636 (Simulation time: 0 hr 37 min 7 sec) 
Heartbeat CPU 0 instructions: 1020000000 cycles: 1605562445 heartbeat IPC: 0.586857 cumulative IPC: 0.585649 (Simulation time: 0 hr 37 min 29 sec) 
Heartbeat CPU 0 instructions: 1030000001 cycles: 1621822082 heartbeat IPC: 0.61502 cumulative IPC: 0.58595 (Simulation time: 0 hr 37 min 52 sec) 
Heartbeat CPU 0 instructions: 1040000001 cycles: 1638901717 heartbeat IPC: 0.585493 cumulative IPC: 0.585945 (Simulation time: 0 hr 38 min 15 sec) 
Heartbeat CPU 0 instructions: 1050000000 cycles: 1655870364 heartbeat IPC: 0.589322 cumulative IPC: 0.585981 (Simulation time: 0 hr 38 min 37 sec) 
Heartbeat CPU 0 instructions: 1060000000 cycles: 1672692400 heartbeat IPC: 0.594458 cumulative IPC: 0.586068 (Simulation time: 0 hr 38 min 59 sec) 
Heartbeat CPU 0 instructions: 1070000002 cycles: 1689690362 heartbeat IPC: 0.588306 cumulative IPC: 0.586091 (Simulation time: 0 hr 39 min 22 sec) 
Heartbeat CPU 0 instructions: 1080000001 cycles: 1706151652 heartbeat IPC: 0.607486 cumulative IPC: 0.586301 (Simulation time: 0 hr 39 min 44 sec) 
Heartbeat CPU 0 instructions: 1090000003 cycles: 1723803277 heartbeat IPC: 0.56652 cumulative IPC: 0.586095 (Simulation time: 0 hr 40 min 7 sec) 
Heartbeat CPU 0 instructions: 1100000000 cycles: 1740856663 heartbeat IPC: 0.586394 cumulative IPC: 0.586098 (Simulation time: 0 hr 40 min 30 sec) 
Finished CPU 0 instructions: 1000000001 cycles: 1706200538 cumulative IPC: 0.586098 (Simulation time: 0 hr 40 min 30 sec) 

ChampSim completed all CPUs

Region of Interest Statistics

CPU 0 cumulative IPC: 0.586098 instructions: 1000000001 cycles: 1706200538
L1D TOTAL     ACCESS:  149779795  HIT:  134429836  MISS:   15349959
L1D LOAD      ACCESS:  132058075  HIT:  117273377  MISS:   14784698
L1D RFO       ACCESS:   17721720  HIT:   17156459  MISS:     565261
L1D PREFETCH  ACCESS:          0  HIT:          0  MISS:          0
L1D WRITEBACK ACCESS:          0  HIT:          0  MISS:          0
L1D PREFETCH  REQUESTED:          0  ISSUED:          0  USEFUL:          0  USELESS:          0
L1D AVERAGE MISS LATENCY: 152.199 cycles
L1I TOTAL     ACCESS:  210350457  HIT:  210349779  MISS:        678
L1I LOAD      ACCESS:  210350457  HIT:  210349779  MISS:        678
L1I RFO       ACCESS:          0  HIT:          0  MISS:          0
L1I PREFETCH  ACCESS:          0  HIT:          0  MISS:          0
L1I WRITEBACK ACCESS:          0  HIT:          0  MISS:          0
L1I PREFETCH  REQUESTED:          0  ISSUED:          0  USEFUL:          0  USELESS:          0
L1I AVERAGE MISS LATENCY: 230.295 cycles
L2C TOTAL     ACCESS:   16334936  HIT:    3544142  MISS:   12790794
L2C LOAD      ACCESS:   14785312  HIT:    2450283  MISS:   12335029
L2C RFO       ACCESS:     565161  HIT:     111330  MISS:     453831
L2C PREFETCH  ACCESS:          0  HIT:          0  MISS:          0
L2C WRITEBACK ACCESS:     984463  HIT:     982529  MISS:       1934
L2C PREFETCH  REQUESTED:          0  ISSUED:          0  USEFUL:          0  USELESS:          0
L2C AVERAGE MISS LATENCY: 167.682 cycles
LLC TOTAL     ACCESS:   13596511  HIT:    2213714  MISS:   11382797
LLC LOAD      ACCESS:   12335005  HIT:    1315770  MISS:   11019235
LLC RFO       ACCESS:     453826  HIT:      91509  MISS:     362317
LLC PREFETCH  ACCESS:          0  HIT:          0  MISS:          0
LLC WRITEBACK ACCESS:     807680  HIT:     806435  MISS:       1245
LLC PREFETCH  REQUESTED:          0  ISSUED:          0  USEFUL:          0  USELESS:          0
LLC AVERAGE MISS LATENCY: 142.997 cycles
Major fault: 0 Minor fault: 4441

DRAM Statistics
 CHANNEL 0
 RQ ROW_BUFFER_HIT:    7498417  ROW_BUFFER_MISS:    3883125
 DBUS_CONGESTED:     616051
 WQ ROW_BUFFER_HIT:     469232  ROW_BUFFER_MISS:     198433  FULL:          0

 AVG_CONGESTED_CYCLE: 5

CPU 0 Branch Prediction Accuracy: 95.5612% MPKI: 4.19749 Average ROB Occupancy at Mispredict: 159.376

Branch types
NOT_BRANCH: 905436987 90.5437%
BRANCH_DIRECT_JUMP: 1644011 0.164401%
BRANCH_INDIRECT: 0 0%
BRANCH_CONDITIONAL: 88615621 8.86156%
BRANCH_DIRECT_CALL: 2151557 0.215156%
BRANCH_INDIRECT_CALL: 112 1.12e-05%
BRANCH_RETURN: 2151669 0.215167%
BRANCH_OTHER: 0 0%

