
*** ChampSim Multicore Out-of-Order Simulator ***

Warmup Instructions: 100000000
Simulation Instructions: 1000000000
Number of CPUs: 1
LLC sets: 2048
LLC ways: 16
Off-chip DRAM Size: 4096 MB Channels: 1 Width: 64-bit Data Rate: 3200 MT/s

CPU 0 runs /scratch/user/kevin.weston/dpc3-traces/482.champsimtrace.xz
CPU 0 Bimodal branch predictor
Initialize SHIP state
Assign rand_sets[0]: 454  LLC: 2048
rand_sets[0]: 454
Assign rand_sets[1]: 1662  LLC: 2048
rand_sets[1]: 1662
Assign rand_sets[2]: 1921  LLC: 2048
rand_sets[2]: 1921
Assign rand_sets[3]: 1131  LLC: 2048
rand_sets[3]: 1131
Assign rand_sets[4]: 331  LLC: 2048
rand_sets[4]: 331
Assign rand_sets[5]: 1531  LLC: 2048
rand_sets[5]: 1531
Assign rand_sets[6]: 482  LLC: 2048
rand_sets[6]: 482
Assign rand_sets[7]: 1275  LLC: 2048
rand_sets[7]: 1275
Assign rand_sets[8]: 1876  LLC: 2048
rand_sets[8]: 1876
Assign rand_sets[9]: 2038  LLC: 2048
rand_sets[9]: 2038
Assign rand_sets[10]: 701  LLC: 2048
rand_sets[10]: 701
Assign rand_sets[11]: 479  LLC: 2048
rand_sets[11]: 479
Assign rand_sets[12]: 892  LLC: 2048
rand_sets[12]: 892
Assign rand_sets[13]: 1820  LLC: 2048
rand_sets[13]: 1820
Assign rand_sets[14]: 1505  LLC: 2048
rand_sets[14]: 1505
Assign rand_sets[15]: 1159  LLC: 2048
rand_sets[15]: 1159
Assign rand_sets[16]: 513  LLC: 2048
rand_sets[16]: 513
Assign rand_sets[17]: 703  LLC: 2048
rand_sets[17]: 703
Assign rand_sets[18]: 561  LLC: 2048
rand_sets[18]: 561
Assign rand_sets[19]: 990  LLC: 2048
rand_sets[19]: 990
Assign rand_sets[20]: 342  LLC: 2048
rand_sets[20]: 342
Assign rand_sets[21]: 882  LLC: 2048
rand_sets[21]: 882
Assign rand_sets[22]: 15  LLC: 2048
rand_sets[22]: 15
Assign rand_sets[23]: 71  LLC: 2048
rand_sets[23]: 71
Assign rand_sets[24]: 1127  LLC: 2048
rand_sets[24]: 1127
Assign rand_sets[25]: 1382  LLC: 2048
rand_sets[25]: 1382
Assign rand_sets[26]: 647  LLC: 2048
rand_sets[26]: 647
Assign rand_sets[27]: 857  LLC: 2048
rand_sets[27]: 857
Assign rand_sets[28]: 1450  LLC: 2048
rand_sets[28]: 1450
Assign rand_sets[29]: 1160  LLC: 2048
rand_sets[29]: 1160
Assign rand_sets[30]: 1852  LLC: 2048
rand_sets[30]: 1852
Assign rand_sets[31]: 1881  LLC: 2048
rand_sets[31]: 1881
Assign rand_sets[32]: 1770  LLC: 2048
rand_sets[32]: 1770
Assign rand_sets[33]: 1622  LLC: 2048
rand_sets[33]: 1622
Assign rand_sets[34]: 275  LLC: 2048
rand_sets[34]: 275
Assign rand_sets[35]: 635  LLC: 2048
rand_sets[35]: 635
Assign rand_sets[36]: 466  LLC: 2048
rand_sets[36]: 466
Assign rand_sets[37]: 1413  LLC: 2048
rand_sets[37]: 1413
Assign rand_sets[38]: 417  LLC: 2048
rand_sets[38]: 417
Assign rand_sets[39]: 472  LLC: 2048
rand_sets[39]: 472
Assign rand_sets[40]: 1340  LLC: 2048
rand_sets[40]: 1340
Assign rand_sets[41]: 852  LLC: 2048
rand_sets[41]: 852
Assign rand_sets[42]: 1365  LLC: 2048
rand_sets[42]: 1365
Assign rand_sets[43]: 47  LLC: 2048
rand_sets[43]: 47
Assign rand_sets[44]: 823  LLC: 2048
rand_sets[44]: 823
Assign rand_sets[45]: 686  LLC: 2048
rand_sets[45]: 686
Assign rand_sets[46]: 1637  LLC: 2048
rand_sets[46]: 1637
Assign rand_sets[47]: 1115  LLC: 2048
rand_sets[47]: 1115
Assign rand_sets[48]: 986  LLC: 2048
rand_sets[48]: 986
Assign rand_sets[49]: 258  LLC: 2048
rand_sets[49]: 258
Assign rand_sets[50]: 633  LLC: 2048
rand_sets[50]: 633
Assign rand_sets[51]: 920  LLC: 2048
rand_sets[51]: 920
Assign rand_sets[52]: 204  LLC: 2048
rand_sets[52]: 204
Assign rand_sets[53]: 227  LLC: 2048
rand_sets[53]: 227
Assign rand_sets[54]: 1818  LLC: 2048
rand_sets[54]: 1818
Assign rand_sets[55]: 886  LLC: 2048
rand_sets[55]: 886
Assign rand_sets[56]: 1422  LLC: 2048
rand_sets[56]: 1422
Assign rand_sets[57]: 607  LLC: 2048
rand_sets[57]: 607
Assign rand_sets[58]: 217  LLC: 2048
rand_sets[58]: 217
Assign rand_sets[59]: 1945  LLC: 2048
rand_sets[59]: 1945
Assign rand_sets[60]: 143  LLC: 2048
rand_sets[60]: 143
Assign rand_sets[61]: 1311  LLC: 2048
rand_sets[61]: 1311
Assign rand_sets[62]: 319  LLC: 2048
rand_sets[62]: 319
Assign rand_sets[63]: 1846  LLC: 2048
rand_sets[63]: 1846
Assign rand_sets[64]: 238  LLC: 2048
rand_sets[64]: 238
Assign rand_sets[65]: 67  LLC: 2048
rand_sets[65]: 67
Assign rand_sets[66]: 1912  LLC: 2048
rand_sets[66]: 1912
Assign rand_sets[67]: 1613  LLC: 2048
rand_sets[67]: 1613
Assign rand_sets[68]: 1293  LLC: 2048
rand_sets[68]: 1293
Assign rand_sets[69]: 1018  LLC: 2048
rand_sets[69]: 1018
Assign rand_sets[70]: 1982  LLC: 2048
rand_sets[70]: 1982
Assign rand_sets[71]: 1702  LLC: 2048
rand_sets[71]: 1702
Assign rand_sets[72]: 1498  LLC: 2048
rand_sets[72]: 1498
Assign rand_sets[73]: 228  LLC: 2048
rand_sets[73]: 228
Assign rand_sets[74]: 1414  LLC: 2048
rand_sets[74]: 1414
Assign rand_sets[75]: 1166  LLC: 2048
rand_sets[75]: 1166
Assign rand_sets[76]: 732  LLC: 2048
rand_sets[76]: 732
Assign rand_sets[77]: 297  LLC: 2048
rand_sets[77]: 297
Assign rand_sets[78]: 1133  LLC: 2048
rand_sets[78]: 1133
Assign rand_sets[79]: 846  LLC: 2048
rand_sets[79]: 846
Assign rand_sets[80]: 767  LLC: 2048
rand_sets[80]: 767
Assign rand_sets[81]: 1878  LLC: 2048
rand_sets[81]: 1878
Assign rand_sets[82]: 993  LLC: 2048
rand_sets[82]: 993
Assign rand_sets[83]: 1392  LLC: 2048
rand_sets[83]: 1392
Assign rand_sets[84]: 1568  LLC: 2048
rand_sets[84]: 1568
Assign rand_sets[85]: 1787  LLC: 2048
rand_sets[85]: 1787
Assign rand_sets[86]: 399  LLC: 2048
rand_sets[86]: 399
Assign rand_sets[87]: 1201  LLC: 2048
rand_sets[87]: 1201
Assign rand_sets[88]: 856  LLC: 2048
rand_sets[88]: 856
Assign rand_sets[89]: 773  LLC: 2048
rand_sets[89]: 773
Assign rand_sets[90]: 1680  LLC: 2048
rand_sets[90]: 1680
Assign rand_sets[91]: 1477  LLC: 2048
rand_sets[91]: 1477
Assign rand_sets[92]: 9  LLC: 2048
rand_sets[92]: 9
Assign rand_sets[93]: 1500  LLC: 2048
rand_sets[93]: 1500
Assign rand_sets[94]: 851  LLC: 2048
rand_sets[94]: 851
Assign rand_sets[95]: 973  LLC: 2048
rand_sets[95]: 973
Assign rand_sets[96]: 938  LLC: 2048
rand_sets[96]: 938
Assign rand_sets[97]: 1851  LLC: 2048
rand_sets[97]: 1851
Assign rand_sets[98]: 1608  LLC: 2048
rand_sets[98]: 1608
Assign rand_sets[99]: 1945  LLC: 2048
Assign rand_sets[99]: 1106  LLC: 2048
rand_sets[99]: 1106
Assign rand_sets[100]: 979  LLC: 2048
rand_sets[100]: 979
Assign rand_sets[101]: 338  LLC: 2048
rand_sets[101]: 338
Assign rand_sets[102]: 1693  LLC: 2048
rand_sets[102]: 1693
Assign rand_sets[103]: 6  LLC: 2048
rand_sets[103]: 6
Assign rand_sets[104]: 671  LLC: 2048
rand_sets[104]: 671
Assign rand_sets[105]: 490  LLC: 2048
rand_sets[105]: 490
Assign rand_sets[106]: 1461  LLC: 2048
rand_sets[106]: 1461
Assign rand_sets[107]: 1730  LLC: 2048
rand_sets[107]: 1730
Assign rand_sets[108]: 1030  LLC: 2048
rand_sets[108]: 1030
Assign rand_sets[109]: 19  LLC: 2048
rand_sets[109]: 19
Assign rand_sets[110]: 920  LLC: 2048
Assign rand_sets[110]: 329  LLC: 2048
rand_sets[110]: 329
Assign rand_sets[111]: 1714  LLC: 2048
rand_sets[111]: 1714
Assign rand_sets[112]: 1  LLC: 2048
rand_sets[112]: 1
Assign rand_sets[113]: 1822  LLC: 2048
rand_sets[113]: 1822
Assign rand_sets[114]: 172  LLC: 2048
rand_sets[114]: 172
Assign rand_sets[115]: 1586  LLC: 2048
rand_sets[115]: 1586
Assign rand_sets[116]: 648  LLC: 2048
rand_sets[116]: 648
Assign rand_sets[117]: 1329  LLC: 2048
rand_sets[117]: 1329
Assign rand_sets[118]: 668  LLC: 2048
rand_sets[118]: 668
Assign rand_sets[119]: 1874  LLC: 2048
rand_sets[119]: 1874
Assign rand_sets[120]: 70  LLC: 2048
rand_sets[120]: 70
Assign rand_sets[121]: 661  LLC: 2048
rand_sets[121]: 661
Assign rand_sets[122]: 1649  LLC: 2048
rand_sets[122]: 1649
Assign rand_sets[123]: 1590  LLC: 2048
rand_sets[123]: 1590
Assign rand_sets[124]: 911  LLC: 2048
rand_sets[124]: 911
Assign rand_sets[125]: 1367  LLC: 2048
rand_sets[125]: 1367
Assign rand_sets[126]: 1782  LLC: 2048
rand_sets[126]: 1782
Assign rand_sets[127]: 569  LLC: 2048
rand_sets[127]: 569
Heartbeat CPU 0 instructions: 10000000 cycles: 3498243 heartbeat IPC: 2.85858 cumulative IPC: 2.85858 (Simulation time: 0 hr 0 min 19 sec) 
Heartbeat CPU 0 instructions: 20000002 cycles: 6992315 heartbeat IPC: 2.86199 cumulative IPC: 2.86028 (Simulation time: 0 hr 0 min 38 sec) 
Heartbeat CPU 0 instructions: 30000002 cycles: 10497085 heartbeat IPC: 2.85325 cumulative IPC: 2.85794 (Simulation time: 0 hr 0 min 56 sec) 
Heartbeat CPU 0 instructions: 40000001 cycles: 13989346 heartbeat IPC: 2.86347 cumulative IPC: 2.85932 (Simulation time: 0 hr 1 min 15 sec) 
Heartbeat CPU 0 instructions: 50000002 cycles: 17424788 heartbeat IPC: 2.91083 cumulative IPC: 2.86948 (Simulation time: 0 hr 1 min 33 sec) 
Heartbeat CPU 0 instructions: 60000003 cycles: 20899168 heartbeat IPC: 2.87821 cumulative IPC: 2.87093 (Simulation time: 0 hr 1 min 51 sec) 
Heartbeat CPU 0 instructions: 70000001 cycles: 24312322 heartbeat IPC: 2.92984 cumulative IPC: 2.8792 (Simulation time: 0 hr 2 min 10 sec) 
Heartbeat CPU 0 instructions: 80000002 cycles: 27740710 heartbeat IPC: 2.91682 cumulative IPC: 2.88385 (Simulation time: 0 hr 2 min 28 sec) 
Heartbeat CPU 0 instructions: 90000001 cycles: 31181584 heartbeat IPC: 2.90624 cumulative IPC: 2.88632 (Simulation time: 0 hr 2 min 46 sec) 
Heartbeat CPU 0 instructions: 100000000 cycles: 34630824 heartbeat IPC: 2.89919 cumulative IPC: 2.8876 (Simulation time: 0 hr 3 min 4 sec) 

Warmup complete CPU 0 instructions: 100000004 cycles: 34630825 (Simulation time: 0 hr 3 min 4 sec) 

Heartbeat CPU 0 instructions: 110000000 cycles: 48544468 heartbeat IPC: 0.718719 cumulative IPC: 0.718719 (Simulation time: 0 hr 3 min 26 sec) 
Heartbeat CPU 0 instructions: 120000001 cycles: 62040844 heartbeat IPC: 0.74094 cumulative IPC: 0.72966 (Simulation time: 0 hr 3 min 46 sec) 
Heartbeat CPU 0 instructions: 130000000 cycles: 77021953 heartbeat IPC: 0.667507 cumulative IPC: 0.707695 (Simulation time: 0 hr 4 min 8 sec) 
Heartbeat CPU 0 instructions: 140000003 cycles: 90741791 heartbeat IPC: 0.728872 cumulative IPC: 0.712873 (Simulation time: 0 hr 4 min 29 sec) 
Heartbeat CPU 0 instructions: 150000002 cycles: 106327928 heartbeat IPC: 0.641596 cumulative IPC: 0.697378 (Simulation time: 0 hr 4 min 52 sec) 
Heartbeat CPU 0 instructions: 160000001 cycles: 121672339 heartbeat IPC: 0.651703 cumulative IPC: 0.689326 (Simulation time: 0 hr 5 min 14 sec) 
Heartbeat CPU 0 instructions: 170000000 cycles: 136840106 heartbeat IPC: 0.659293 cumulative IPC: 0.684869 (Simulation time: 0 hr 5 min 36 sec) 
Heartbeat CPU 0 instructions: 180000002 cycles: 151670252 heartbeat IPC: 0.674302 cumulative IPC: 0.68353 (Simulation time: 0 hr 5 min 57 sec) 
Heartbeat CPU 0 instructions: 190000003 cycles: 166365812 heartbeat IPC: 0.680478 cumulative IPC: 0.68319 (Simulation time: 0 hr 6 min 19 sec) 
Heartbeat CPU 0 instructions: 200000000 cycles: 180776930 heartbeat IPC: 0.693908 cumulative IPC: 0.684247 (Simulation time: 0 hr 6 min 41 sec) 
Heartbeat CPU 0 instructions: 210000000 cycles: 195796374 heartbeat IPC: 0.665804 cumulative IPC: 0.682528 (Simulation time: 0 hr 7 min 3 sec) 
Heartbeat CPU 0 instructions: 220000000 cycles: 209653445 heartbeat IPC: 0.721653 cumulative IPC: 0.685626 (Simulation time: 0 hr 7 min 23 sec) 
Heartbeat CPU 0 instructions: 230000003 cycles: 222731312 heartbeat IPC: 0.764651 cumulative IPC: 0.69112 (Simulation time: 0 hr 7 min 44 sec) 
Heartbeat CPU 0 instructions: 240000003 cycles: 235663152 heartbeat IPC: 0.773285 cumulative IPC: 0.696405 (Simulation time: 0 hr 8 min 5 sec) 
Heartbeat CPU 0 instructions: 250000001 cycles: 248546512 heartbeat IPC: 0.776195 cumulative IPC: 0.701211 (Simulation time: 0 hr 8 min 26 sec) 
Heartbeat CPU 0 instructions: 260000003 cycles: 261535151 heartbeat IPC: 0.769904 cumulative IPC: 0.705143 (Simulation time: 0 hr 8 min 47 sec) 
Heartbeat CPU 0 instructions: 270000002 cycles: 276576350 heartbeat IPC: 0.664841 cumulative IPC: 0.702637 (Simulation time: 0 hr 9 min 9 sec) 
Heartbeat CPU 0 instructions: 280000000 cycles: 290515760 heartbeat IPC: 0.71739 cumulative IPC: 0.703441 (Simulation time: 0 hr 9 min 30 sec) 
Heartbeat CPU 0 instructions: 290000002 cycles: 304712874 heartbeat IPC: 0.704369 cumulative IPC: 0.70349 (Simulation time: 0 hr 9 min 52 sec) 
Heartbeat CPU 0 instructions: 300000001 cycles: 318935456 heartbeat IPC: 0.703107 cumulative IPC: 0.703471 (Simulation time: 0 hr 10 min 13 sec) 
Heartbeat CPU 0 instructions: 310000000 cycles: 333748987 heartbeat IPC: 0.675058 cumulative IPC: 0.702064 (Simulation time: 0 hr 10 min 34 sec) 
Heartbeat CPU 0 instructions: 320000000 cycles: 347510835 heartbeat IPC: 0.726647 cumulative IPC: 0.703145 (Simulation time: 0 hr 10 min 55 sec) 
Heartbeat CPU 0 instructions: 330000000 cycles: 362130190 heartbeat IPC: 0.684025 cumulative IPC: 0.702291 (Simulation time: 0 hr 11 min 17 sec) 
Heartbeat CPU 0 instructions: 340000000 cycles: 377139233 heartbeat IPC: 0.666265 cumulative IPC: 0.700713 (Simulation time: 0 hr 11 min 39 sec) 
Heartbeat CPU 0 instructions: 350000003 cycles: 392254731 heartbeat IPC: 0.661573 cumulative IPC: 0.699058 (Simulation time: 0 hr 12 min 0 sec) 
Heartbeat CPU 0 instructions: 360000001 cycles: 407462262 heartbeat IPC: 0.657569 cumulative IPC: 0.697366 (Simulation time: 0 hr 12 min 22 sec) 
Heartbeat CPU 0 instructions: 370000001 cycles: 422713739 heartbeat IPC: 0.655674 cumulative IPC: 0.695728 (Simulation time: 0 hr 12 min 44 sec) 
Heartbeat CPU 0 instructions: 380000003 cycles: 437958801 heartbeat IPC: 0.65595 cumulative IPC: 0.694224 (Simulation time: 0 hr 13 min 6 sec) 
Heartbeat CPU 0 instructions: 390000000 cycles: 454551542 heartbeat IPC: 0.602673 cumulative IPC: 0.690607 (Simulation time: 0 hr 13 min 29 sec) 
Heartbeat CPU 0 instructions: 400000000 cycles: 470145225 heartbeat IPC: 0.641285 cumulative IPC: 0.688841 (Simulation time: 0 hr 13 min 51 sec) 
Heartbeat CPU 0 instructions: 410000001 cycles: 485391120 heartbeat IPC: 0.655914 cumulative IPC: 0.687727 (Simulation time: 0 hr 14 min 13 sec) 
Heartbeat CPU 0 instructions: 420000000 cycles: 499895827 heartbeat IPC: 0.689431 cumulative IPC: 0.68778 (Simulation time: 0 hr 14 min 34 sec) 
Heartbeat CPU 0 instructions: 430000002 cycles: 515347921 heartbeat IPC: 0.647162 cumulative IPC: 0.686474 (Simulation time: 0 hr 14 min 56 sec) 
Heartbeat CPU 0 instructions: 440000000 cycles: 532202303 heartbeat IPC: 0.593317 cumulative IPC: 0.683319 (Simulation time: 0 hr 15 min 19 sec) 
Heartbeat CPU 0 instructions: 450000000 cycles: 547584637 heartbeat IPC: 0.650096 cumulative IPC: 0.682323 (Simulation time: 0 hr 15 min 42 sec) 
Heartbeat CPU 0 instructions: 460000000 cycles: 563029943 heartbeat IPC: 0.647446 cumulative IPC: 0.681303 (Simulation time: 0 hr 16 min 4 sec) 
Heartbeat CPU 0 instructions: 470000002 cycles: 579787235 heartbeat IPC: 0.596755 cumulative IPC: 0.678704 (Simulation time: 0 hr 16 min 27 sec) 
Heartbeat CPU 0 instructions: 480000000 cycles: 595303704 heartbeat IPC: 0.644476 cumulative IPC: 0.677757 (Simulation time: 0 hr 16 min 49 sec) 
Heartbeat CPU 0 instructions: 490000001 cycles: 610763286 heartbeat IPC: 0.646848 cumulative IPC: 0.676928 (Simulation time: 0 hr 17 min 12 sec) 
Heartbeat CPU 0 instructions: 500000003 cycles: 627034525 heartbeat IPC: 0.614581 cumulative IPC: 0.675215 (Simulation time: 0 hr 17 min 34 sec) 
Heartbeat CPU 0 instructions: 510000003 cycles: 643062858 heartbeat IPC: 0.623895 cumulative IPC: 0.673863 (Simulation time: 0 hr 17 min 57 sec) 
Heartbeat CPU 0 instructions: 520000001 cycles: 658528240 heartbeat IPC: 0.646605 cumulative IPC: 0.673188 (Simulation time: 0 hr 18 min 19 sec) 
Heartbeat CPU 0 instructions: 530000002 cycles: 674799976 heartbeat IPC: 0.614563 cumulative IPC: 0.671697 (Simulation time: 0 hr 18 min 41 sec) 
Heartbeat CPU 0 instructions: 540000002 cycles: 690827097 heartbeat IPC: 0.623942 cumulative IPC: 0.670531 (Simulation time: 0 hr 19 min 4 sec) 
Heartbeat CPU 0 instructions: 550000000 cycles: 706313028 heartbeat IPC: 0.645747 cumulative IPC: 0.66996 (Simulation time: 0 hr 19 min 26 sec) 
Heartbeat CPU 0 instructions: 560000001 cycles: 722913286 heartbeat IPC: 0.6024 cumulative IPC: 0.66833 (Simulation time: 0 hr 19 min 48 sec) 
Heartbeat CPU 0 instructions: 570000003 cycles: 738585358 heartbeat IPC: 0.638078 cumulative IPC: 0.667657 (Simulation time: 0 hr 20 min 11 sec) 
Heartbeat CPU 0 instructions: 580000000 cycles: 754047869 heartbeat IPC: 0.646725 cumulative IPC: 0.667207 (Simulation time: 0 hr 20 min 33 sec) 
Heartbeat CPU 0 instructions: 590000002 cycles: 770900901 heartbeat IPC: 0.593365 cumulative IPC: 0.665517 (Simulation time: 0 hr 20 min 56 sec) 
Heartbeat CPU 0 instructions: 600000000 cycles: 786353145 heartbeat IPC: 0.647155 cumulative IPC: 0.665139 (Simulation time: 0 hr 21 min 18 sec) 
Heartbeat CPU 0 instructions: 610000000 cycles: 800999178 heartbeat IPC: 0.682779 cumulative IPC: 0.665476 (Simulation time: 0 hr 21 min 39 sec) 
Heartbeat CPU 0 instructions: 620000003 cycles: 817774816 heartbeat IPC: 0.596103 cumulative IPC: 0.66399 (Simulation time: 0 hr 22 min 2 sec) 
Heartbeat CPU 0 instructions: 630000002 cycles: 833218325 heartbeat IPC: 0.647521 cumulative IPC: 0.663672 (Simulation time: 0 hr 22 min 24 sec) 
Heartbeat CPU 0 instructions: 640000000 cycles: 848713140 heartbeat IPC: 0.645377 cumulative IPC: 0.663324 (Simulation time: 0 hr 22 min 46 sec) 
Heartbeat CPU 0 instructions: 650000000 cycles: 865499607 heartbeat IPC: 0.595718 cumulative IPC: 0.661958 (Simulation time: 0 hr 23 min 9 sec) 
Heartbeat CPU 0 instructions: 660000000 cycles: 880978076 heartbeat IPC: 0.646059 cumulative IPC: 0.661667 (Simulation time: 0 hr 23 min 32 sec) 
Heartbeat CPU 0 instructions: 670000003 cycles: 896425808 heartbeat IPC: 0.647344 cumulative IPC: 0.66141 (Simulation time: 0 hr 23 min 54 sec) 
Heartbeat CPU 0 instructions: 680000003 cycles: 913353327 heartbeat IPC: 0.590754 cumulative IPC: 0.660049 (Simulation time: 0 hr 24 min 17 sec) 
Heartbeat CPU 0 instructions: 690000000 cycles: 928597430 heartbeat IPC: 0.655991 cumulative IPC: 0.65998 (Simulation time: 0 hr 24 min 39 sec) 
Heartbeat CPU 0 instructions: 700000001 cycles: 943938013 heartbeat IPC: 0.651866 cumulative IPC: 0.659843 (Simulation time: 0 hr 25 min 1 sec) 
Heartbeat CPU 0 instructions: 710000000 cycles: 959248020 heartbeat IPC: 0.653167 cumulative IPC: 0.659732 (Simulation time: 0 hr 25 min 23 sec) 
Heartbeat CPU 0 instructions: 720000000 cycles: 976147836 heartbeat IPC: 0.591722 cumulative IPC: 0.658512 (Simulation time: 0 hr 25 min 46 sec) 
Heartbeat CPU 0 instructions: 730000001 cycles: 991362954 heartbeat IPC: 0.657241 cumulative IPC: 0.658492 (Simulation time: 0 hr 26 min 8 sec) 
Heartbeat CPU 0 instructions: 740000000 cycles: 1006662609 heartbeat IPC: 0.653609 cumulative IPC: 0.658415 (Simulation time: 0 hr 26 min 30 sec) 
Heartbeat CPU 0 instructions: 750000000 cycles: 1021893566 heartbeat IPC: 0.656558 cumulative IPC: 0.658386 (Simulation time: 0 hr 26 min 52 sec) 
Heartbeat CPU 0 instructions: 760000003 cycles: 1037116440 heartbeat IPC: 0.656906 cumulative IPC: 0.658364 (Simulation time: 0 hr 27 min 14 sec) 
Heartbeat CPU 0 instructions: 770000000 cycles: 1051387715 heartbeat IPC: 0.700708 cumulative IPC: 0.658958 (Simulation time: 0 hr 27 min 35 sec) 
Heartbeat CPU 0 instructions: 780000000 cycles: 1066526776 heartbeat IPC: 0.660543 cumulative IPC: 0.658981 (Simulation time: 0 hr 27 min 57 sec) 
Heartbeat CPU 0 instructions: 790000002 cycles: 1081701037 heartbeat IPC: 0.659011 cumulative IPC: 0.658982 (Simulation time: 0 hr 28 min 19 sec) 
Heartbeat CPU 0 instructions: 800000002 cycles: 1096872127 heartbeat IPC: 0.659148 cumulative IPC: 0.658984 (Simulation time: 0 hr 28 min 41 sec) 
Heartbeat CPU 0 instructions: 810000001 cycles: 1112056477 heartbeat IPC: 0.658573 cumulative IPC: 0.658978 (Simulation time: 0 hr 29 min 3 sec) 
Heartbeat CPU 0 instructions: 820000001 cycles: 1127205159 heartbeat IPC: 0.660123 cumulative IPC: 0.658994 (Simulation time: 0 hr 29 min 25 sec) 
Heartbeat CPU 0 instructions: 830000003 cycles: 1142324082 heartbeat IPC: 0.661423 cumulative IPC: 0.659027 (Simulation time: 0 hr 29 min 47 sec) 
Heartbeat CPU 0 instructions: 840000001 cycles: 1157095494 heartbeat IPC: 0.676983 cumulative IPC: 0.659263 (Simulation time: 0 hr 30 min 9 sec) 
Heartbeat CPU 0 instructions: 850000002 cycles: 1170905458 heartbeat IPC: 0.724115 cumulative IPC: 0.660052 (Simulation time: 0 hr 30 min 30 sec) 
Heartbeat CPU 0 instructions: 860000003 cycles: 1185886844 heartbeat IPC: 0.667495 cumulative IPC: 0.660149 (Simulation time: 0 hr 30 min 52 sec) 
Heartbeat CPU 0 instructions: 870000003 cycles: 1200989611 heartbeat IPC: 0.66213 cumulative IPC: 0.660174 (Simulation time: 0 hr 31 min 14 sec) 
Heartbeat CPU 0 instructions: 880000000 cycles: 1215176434 heartbeat IPC: 0.704879 cumulative IPC: 0.660711 (Simulation time: 0 hr 31 min 35 sec) 
Heartbeat CPU 0 instructions: 890000000 cycles: 1228945944 heartbeat IPC: 0.726242 cumulative IPC: 0.661467 (Simulation time: 0 hr 31 min 57 sec) 
Heartbeat CPU 0 instructions: 900000003 cycles: 1243678874 heartbeat IPC: 0.678752 cumulative IPC: 0.661678 (Simulation time: 0 hr 32 min 19 sec) 
Heartbeat CPU 0 instructions: 910000003 cycles: 1258762972 heartbeat IPC: 0.66295 cumulative IPC: 0.661693 (Simulation time: 0 hr 32 min 41 sec) 
Heartbeat CPU 0 instructions: 920000000 cycles: 1273715858 heartbeat IPC: 0.668767 cumulative IPC: 0.661779 (Simulation time: 0 hr 33 min 3 sec) 
Heartbeat CPU 0 instructions: 930000001 cycles: 1287378064 heartbeat IPC: 0.731946 cumulative IPC: 0.662544 (Simulation time: 0 hr 33 min 24 sec) 
Heartbeat CPU 0 instructions: 940000002 cycles: 1302287497 heartbeat IPC: 0.670716 cumulative IPC: 0.66264 (Simulation time: 0 hr 33 min 46 sec) 
Heartbeat CPU 0 instructions: 950000002 cycles: 1317366789 heartbeat IPC: 0.663161 cumulative IPC: 0.662646 (Simulation time: 0 hr 34 min 8 sec) 
Heartbeat CPU 0 instructions: 960000003 cycles: 1331963299 heartbeat IPC: 0.685095 cumulative IPC: 0.662899 (Simulation time: 0 hr 34 min 29 sec) 
Heartbeat CPU 0 instructions: 970000001 cycles: 1345766289 heartbeat IPC: 0.724481 cumulative IPC: 0.663547 (Simulation time: 0 hr 34 min 51 sec) 
Heartbeat CPU 0 instructions: 980000003 cycles: 1359896532 heartbeat IPC: 0.707702 cumulative IPC: 0.664018 (Simulation time: 0 hr 35 min 12 sec) 
Heartbeat CPU 0 instructions: 990000000 cycles: 1374510721 heartbeat IPC: 0.684266 cumulative IPC: 0.664239 (Simulation time: 0 hr 35 min 34 sec) 
Heartbeat CPU 0 instructions: 1000000000 cycles: 1388303079 heartbeat IPC: 0.725039 cumulative IPC: 0.664858 (Simulation time: 0 hr 35 min 55 sec) 
Heartbeat CPU 0 instructions: 1010000002 cycles: 1403383586 heartbeat IPC: 0.663108 cumulative IPC: 0.664839 (Simulation time: 0 hr 36 min 17 sec) 
Heartbeat CPU 0 instructions: 1020000000 cycles: 1418413801 heartbeat IPC: 0.665326 cumulative IPC: 0.664844 (Simulation time: 0 hr 36 min 39 sec) 
Heartbeat CPU 0 instructions: 1030000001 cycles: 1432046962 heartbeat IPC: 0.733506 cumulative IPC: 0.665514 (Simulation time: 0 hr 37 min 1 sec) 
Heartbeat CPU 0 instructions: 1040000001 cycles: 1446868137 heartbeat IPC: 0.67471 cumulative IPC: 0.66561 (Simulation time: 0 hr 37 min 22 sec) 
Heartbeat CPU 0 instructions: 1050000000 cycles: 1461958338 heartbeat IPC: 0.662682 cumulative IPC: 0.66558 (Simulation time: 0 hr 37 min 44 sec) 
Heartbeat CPU 0 instructions: 1060000000 cycles: 1476721038 heartbeat IPC: 0.677383 cumulative IPC: 0.6657 (Simulation time: 0 hr 38 min 6 sec) 
Heartbeat CPU 0 instructions: 1070000002 cycles: 1490847844 heartbeat IPC: 0.707874 cumulative IPC: 0.66611 (Simulation time: 0 hr 38 min 28 sec) 
Heartbeat CPU 0 instructions: 1080000001 cycles: 1505127463 heartbeat IPC: 0.700299 cumulative IPC: 0.666442 (Simulation time: 0 hr 38 min 49 sec) 
Heartbeat CPU 0 instructions: 1090000003 cycles: 1519875395 heartbeat IPC: 0.678061 cumulative IPC: 0.666557 (Simulation time: 0 hr 39 min 11 sec) 
Heartbeat CPU 0 instructions: 1100000000 cycles: 1533957025 heartbeat IPC: 0.710145 cumulative IPC: 0.666966 (Simulation time: 0 hr 39 min 32 sec) 
Finished CPU 0 instructions: 1000000001 cycles: 1499326204 cumulative IPC: 0.666966 (Simulation time: 0 hr 39 min 32 sec) 

ChampSim completed all CPUs

Region of Interest Statistics

CPU 0 cumulative IPC: 0.666966 instructions: 1000000001 cycles: 1499326204
L1D TOTAL     ACCESS:  151311046  HIT:  135960785  MISS:   15350261
L1D LOAD      ACCESS:  133494179  HIT:  118709342  MISS:   14784837
L1D RFO       ACCESS:   17816867  HIT:   17251443  MISS:     565424
L1D PREFETCH  ACCESS:          0  HIT:          0  MISS:          0
L1D WRITEBACK ACCESS:          0  HIT:          0  MISS:          0
L1D PREFETCH  REQUESTED:          0  ISSUED:          0  USEFUL:          0  USELESS:          0
L1D AVERAGE MISS LATENCY: 123.568 cycles
L1I TOTAL     ACCESS:  210194168  HIT:  210193490  MISS:        678
L1I LOAD      ACCESS:  210194168  HIT:  210193490  MISS:        678
L1I RFO       ACCESS:          0  HIT:          0  MISS:          0
L1I PREFETCH  ACCESS:          0  HIT:          0  MISS:          0
L1I WRITEBACK ACCESS:          0  HIT:          0  MISS:          0
L1I PREFETCH  REQUESTED:          0  ISSUED:          0  USEFUL:          0  USELESS:          0
L1I AVERAGE MISS LATENCY: 188.336 cycles
L2C TOTAL     ACCESS:   16335237  HIT:    3614818  MISS:   12720419
L2C LOAD      ACCESS:   14785446  HIT:    2524181  MISS:   12261265
L2C RFO       ACCESS:     565319  HIT:     108142  MISS:     457177
L2C PREFETCH  ACCESS:          0  HIT:          0  MISS:          0
L2C WRITEBACK ACCESS:     984472  HIT:     982495  MISS:       1977
L2C PREFETCH  REQUESTED:          0  ISSUED:          0  USEFUL:          0  USELESS:          0
L2C AVERAGE MISS LATENCY: 134.031 cycles
LLC TOTAL     ACCESS:   13529346  HIT:    4965035  MISS:    8564311
LLC LOAD      ACCESS:   12261242  HIT:    3748271  MISS:    8512971
LLC RFO       ACCESS:     457161  HIT:     431527  MISS:      25634
LLC PREFETCH  ACCESS:          0  HIT:          0  MISS:          0
LLC WRITEBACK ACCESS:     810943  HIT:     785237  MISS:      25706
LLC PREFETCH  REQUESTED:          0  ISSUED:          0  USEFUL:          0  USELESS:          0
LLC AVERAGE MISS LATENCY: 138.976 cycles
Major fault: 0 Minor fault: 4441

DRAM Statistics
 CHANNEL 0
 RQ ROW_BUFFER_HIT:    6057432  ROW_BUFFER_MISS:    2481167
 DBUS_CONGESTED:     242418
 WQ ROW_BUFFER_HIT:      33490  ROW_BUFFER_MISS:      29758  FULL:          0

 AVG_CONGESTED_CYCLE: 5

CPU 0 Branch Prediction Accuracy: 95.5612% MPKI: 4.19749 Average ROB Occupancy at Mispredict: 145.118

Branch types
NOT_BRANCH: 905436987 90.5437%
BRANCH_DIRECT_JUMP: 1644011 0.164401%
BRANCH_INDIRECT: 0 0%
BRANCH_CONDITIONAL: 88615621 8.86156%
BRANCH_DIRECT_CALL: 2151557 0.215156%
BRANCH_INDIRECT_CALL: 112 1.12e-05%
BRANCH_RETURN: 2151669 0.215167%
BRANCH_OTHER: 0 0%

