
*** ChampSim Multicore Out-of-Order Simulator ***

Warmup Instructions: 100000000
Simulation Instructions: 1000000000
Number of CPUs: 1
LLC sets: 2048
LLC ways: 16
Off-chip DRAM Size: 4096 MB Channels: 1 Width: 64-bit Data Rate: 3200 MT/s

CPU 0 runs /scratch/user/kevin.weston/dpc3-traces/482.champsimtrace.xz
CPU 0 Bimodal branch predictor
Initialize SRRIP state
Heartbeat CPU 0 instructions: 10000000 cycles: 3498434 heartbeat IPC: 2.85842 cumulative IPC: 2.85842 (Simulation time: 0 hr 0 min 20 sec) 
Heartbeat CPU 0 instructions: 20000002 cycles: 6994347 heartbeat IPC: 2.86048 cumulative IPC: 2.85945 (Simulation time: 0 hr 0 min 39 sec) 
Heartbeat CPU 0 instructions: 30000002 cycles: 10500424 heartbeat IPC: 2.85219 cumulative IPC: 2.85703 (Simulation time: 0 hr 0 min 58 sec) 
Heartbeat CPU 0 instructions: 40000001 cycles: 13993587 heartbeat IPC: 2.86273 cumulative IPC: 2.85845 (Simulation time: 0 hr 1 min 17 sec) 
Heartbeat CPU 0 instructions: 50000002 cycles: 17431536 heartbeat IPC: 2.90871 cumulative IPC: 2.86836 (Simulation time: 0 hr 1 min 35 sec) 
Heartbeat CPU 0 instructions: 60000003 cycles: 20907798 heartbeat IPC: 2.87665 cumulative IPC: 2.86974 (Simulation time: 0 hr 1 min 54 sec) 
Heartbeat CPU 0 instructions: 70000001 cycles: 24324019 heartbeat IPC: 2.92721 cumulative IPC: 2.87781 (Simulation time: 0 hr 2 min 13 sec) 
Heartbeat CPU 0 instructions: 80000002 cycles: 27755595 heartbeat IPC: 2.91411 cumulative IPC: 2.8823 (Simulation time: 0 hr 2 min 31 sec) 
Heartbeat CPU 0 instructions: 90000001 cycles: 31199194 heartbeat IPC: 2.90394 cumulative IPC: 2.88469 (Simulation time: 0 hr 2 min 50 sec) 
Heartbeat CPU 0 instructions: 100000000 cycles: 34650787 heartbeat IPC: 2.89721 cumulative IPC: 2.88594 (Simulation time: 0 hr 3 min 8 sec) 

Warmup complete CPU 0 instructions: 100000004 cycles: 34650788 (Simulation time: 0 hr 3 min 8 sec) 

Heartbeat CPU 0 instructions: 110000000 cycles: 50575078 heartbeat IPC: 0.627971 cumulative IPC: 0.627971 (Simulation time: 0 hr 3 min 30 sec) 
Heartbeat CPU 0 instructions: 120000001 cycles: 66077728 heartbeat IPC: 0.645051 cumulative IPC: 0.636397 (Simulation time: 0 hr 3 min 52 sec) 
Heartbeat CPU 0 instructions: 130000000 cycles: 82680400 heartbeat IPC: 0.602313 cumulative IPC: 0.624615 (Simulation time: 0 hr 4 min 14 sec) 
Heartbeat CPU 0 instructions: 140000003 cycles: 98976206 heartbeat IPC: 0.613655 cumulative IPC: 0.621838 (Simulation time: 0 hr 4 min 36 sec) 
Heartbeat CPU 0 instructions: 150000002 cycles: 116100405 heartbeat IPC: 0.583969 cumulative IPC: 0.613876 (Simulation time: 0 hr 4 min 59 sec) 
Heartbeat CPU 0 instructions: 160000001 cycles: 133174191 heartbeat IPC: 0.585693 cumulative IPC: 0.608992 (Simulation time: 0 hr 5 min 21 sec) 
Heartbeat CPU 0 instructions: 170000000 cycles: 150280651 heartbeat IPC: 0.584574 cumulative IPC: 0.60538 (Simulation time: 0 hr 5 min 43 sec) 
Heartbeat CPU 0 instructions: 180000002 cycles: 167075489 heartbeat IPC: 0.595421 cumulative IPC: 0.604117 (Simulation time: 0 hr 6 min 6 sec) 
Heartbeat CPU 0 instructions: 190000000 cycles: 183836883 heartbeat IPC: 0.596609 cumulative IPC: 0.603273 (Simulation time: 0 hr 6 min 28 sec) 
Heartbeat CPU 0 instructions: 200000000 cycles: 200527799 heartbeat IPC: 0.599128 cumulative IPC: 0.602856 (Simulation time: 0 hr 6 min 50 sec) 
Heartbeat CPU 0 instructions: 210000000 cycles: 217263593 heartbeat IPC: 0.597522 cumulative IPC: 0.602367 (Simulation time: 0 hr 7 min 13 sec) 
Heartbeat CPU 0 instructions: 220000000 cycles: 232562591 heartbeat IPC: 0.653638 cumulative IPC: 0.606331 (Simulation time: 0 hr 7 min 34 sec) 
Heartbeat CPU 0 instructions: 230000003 cycles: 248114746 heartbeat IPC: 0.642998 cumulative IPC: 0.609002 (Simulation time: 0 hr 7 min 55 sec) 
Heartbeat CPU 0 instructions: 240000003 cycles: 263515176 heartbeat IPC: 0.649333 cumulative IPC: 0.611716 (Simulation time: 0 hr 8 min 17 sec) 
Heartbeat CPU 0 instructions: 250000001 cycles: 278827001 heartbeat IPC: 0.65309 cumulative IPC: 0.61431 (Simulation time: 0 hr 8 min 39 sec) 
Heartbeat CPU 0 instructions: 260000003 cycles: 294313265 heartbeat IPC: 0.645734 cumulative IPC: 0.616185 (Simulation time: 0 hr 9 min 0 sec) 
Heartbeat CPU 0 instructions: 270000002 cycles: 310736710 heartbeat IPC: 0.608886 cumulative IPC: 0.61575 (Simulation time: 0 hr 9 min 22 sec) 
Heartbeat CPU 0 instructions: 280000001 cycles: 326647848 heartbeat IPC: 0.628491 cumulative IPC: 0.616445 (Simulation time: 0 hr 9 min 44 sec) 
Heartbeat CPU 0 instructions: 290000002 cycles: 342907484 heartbeat IPC: 0.61502 cumulative IPC: 0.616369 (Simulation time: 0 hr 10 min 6 sec) 
Heartbeat CPU 0 instructions: 300000001 cycles: 358558973 heartbeat IPC: 0.638917 cumulative IPC: 0.617459 (Simulation time: 0 hr 10 min 28 sec) 
Heartbeat CPU 0 instructions: 310000000 cycles: 375089173 heartbeat IPC: 0.604953 cumulative IPC: 0.616852 (Simulation time: 0 hr 10 min 50 sec) 
Heartbeat CPU 0 instructions: 320000000 cycles: 391201969 heartbeat IPC: 0.620625 cumulative IPC: 0.617022 (Simulation time: 0 hr 11 min 12 sec) 
Heartbeat CPU 0 instructions: 330000000 cycles: 407682248 heartbeat IPC: 0.606786 cumulative IPC: 0.61657 (Simulation time: 0 hr 11 min 34 sec) 
Heartbeat CPU 0 instructions: 340000000 cycles: 424342608 heartbeat IPC: 0.600227 cumulative IPC: 0.615871 (Simulation time: 0 hr 11 min 56 sec) 
Heartbeat CPU 0 instructions: 350000003 cycles: 441075083 heartbeat IPC: 0.59764 cumulative IPC: 0.615121 (Simulation time: 0 hr 12 min 18 sec) 
Heartbeat CPU 0 instructions: 360000001 cycles: 457956028 heartbeat IPC: 0.592384 cumulative IPC: 0.614214 (Simulation time: 0 hr 12 min 41 sec) 
Heartbeat CPU 0 instructions: 370000001 cycles: 474909369 heartbeat IPC: 0.589854 cumulative IPC: 0.613276 (Simulation time: 0 hr 13 min 3 sec) 
Heartbeat CPU 0 instructions: 380000003 cycles: 491955265 heartbeat IPC: 0.586652 cumulative IPC: 0.612284 (Simulation time: 0 hr 13 min 25 sec) 
Heartbeat CPU 0 instructions: 390000000 cycles: 509454167 heartbeat IPC: 0.571464 cumulative IPC: 0.610779 (Simulation time: 0 hr 13 min 48 sec) 
Heartbeat CPU 0 instructions: 400000000 cycles: 526470295 heartbeat IPC: 0.587678 cumulative IPC: 0.60998 (Simulation time: 0 hr 14 min 10 sec) 
Heartbeat CPU 0 instructions: 410000001 cycles: 543539034 heartbeat IPC: 0.585866 cumulative IPC: 0.609171 (Simulation time: 0 hr 14 min 33 sec) 
Heartbeat CPU 0 instructions: 420000000 cycles: 559724994 heartbeat IPC: 0.617819 cumulative IPC: 0.609438 (Simulation time: 0 hr 14 min 54 sec) 
Heartbeat CPU 0 instructions: 430000002 cycles: 576914572 heartbeat IPC: 0.581748 cumulative IPC: 0.60856 (Simulation time: 0 hr 15 min 16 sec) 
Heartbeat CPU 0 instructions: 440000000 cycles: 594286011 heartbeat IPC: 0.575657 cumulative IPC: 0.607539 (Simulation time: 0 hr 15 min 39 sec) 
Heartbeat CPU 0 instructions: 450000000 cycles: 611588329 heartbeat IPC: 0.577957 cumulative IPC: 0.606651 (Simulation time: 0 hr 16 min 2 sec) 
Heartbeat CPU 0 instructions: 460000000 cycles: 628688537 heartbeat IPC: 0.584788 cumulative IPC: 0.606022 (Simulation time: 0 hr 16 min 24 sec) 
Heartbeat CPU 0 instructions: 470000002 cycles: 646394301 heartbeat IPC: 0.564788 cumulative IPC: 0.604829 (Simulation time: 0 hr 16 min 47 sec) 
Heartbeat CPU 0 instructions: 480000000 cycles: 663321589 heartbeat IPC: 0.590762 cumulative IPC: 0.60445 (Simulation time: 0 hr 17 min 9 sec) 
Heartbeat CPU 0 instructions: 490000001 cycles: 680673042 heartbeat IPC: 0.576321 cumulative IPC: 0.603694 (Simulation time: 0 hr 17 min 32 sec) 
Heartbeat CPU 0 instructions: 500000003 cycles: 698118257 heartbeat IPC: 0.573223 cumulative IPC: 0.602893 (Simulation time: 0 hr 17 min 54 sec) 
Heartbeat CPU 0 instructions: 510000003 cycles: 715268161 heartbeat IPC: 0.583094 cumulative IPC: 0.602394 (Simulation time: 0 hr 18 min 17 sec) 
Heartbeat CPU 0 instructions: 520000001 cycles: 732661029 heartbeat IPC: 0.574948 cumulative IPC: 0.60171 (Simulation time: 0 hr 18 min 39 sec) 
Heartbeat CPU 0 instructions: 530000003 cycles: 750155631 heartbeat IPC: 0.571605 cumulative IPC: 0.600974 (Simulation time: 0 hr 19 min 2 sec) 
Heartbeat CPU 0 instructions: 540000002 cycles: 767284206 heartbeat IPC: 0.58382 cumulative IPC: 0.600573 (Simulation time: 0 hr 19 min 24 sec) 
Heartbeat CPU 0 instructions: 550000000 cycles: 784743659 heartbeat IPC: 0.572756 cumulative IPC: 0.599926 (Simulation time: 0 hr 19 min 47 sec) 
Heartbeat CPU 0 instructions: 560000001 cycles: 802334251 heartbeat IPC: 0.568486 cumulative IPC: 0.599205 (Simulation time: 0 hr 20 min 9 sec) 
Heartbeat CPU 0 instructions: 570000003 cycles: 819392147 heartbeat IPC: 0.586239 cumulative IPC: 0.598923 (Simulation time: 0 hr 20 min 32 sec) 
Heartbeat CPU 0 instructions: 580000000 cycles: 836803874 heartbeat IPC: 0.574325 cumulative IPC: 0.59839 (Simulation time: 0 hr 20 min 54 sec) 
Heartbeat CPU 0 instructions: 590000002 cycles: 854614588 heartbeat IPC: 0.56146 cumulative IPC: 0.597587 (Simulation time: 0 hr 21 min 17 sec) 
Heartbeat CPU 0 instructions: 600000000 cycles: 871545888 heartbeat IPC: 0.590622 cumulative IPC: 0.597446 (Simulation time: 0 hr 21 min 39 sec) 
Heartbeat CPU 0 instructions: 610000000 cycles: 887909515 heartbeat IPC: 0.611111 cumulative IPC: 0.597709 (Simulation time: 0 hr 22 min 1 sec) 
Heartbeat CPU 0 instructions: 620000003 cycles: 905262557 heartbeat IPC: 0.576268 cumulative IPC: 0.597281 (Simulation time: 0 hr 22 min 23 sec) 
Heartbeat CPU 0 instructions: 630000002 cycles: 922809354 heartbeat IPC: 0.569905 cumulative IPC: 0.59674 (Simulation time: 0 hr 22 min 46 sec) 
Heartbeat CPU 0 instructions: 640000000 cycles: 939991838 heartbeat IPC: 0.581988 cumulative IPC: 0.59646 (Simulation time: 0 hr 23 min 8 sec) 
Heartbeat CPU 0 instructions: 650000000 cycles: 957371077 heartbeat IPC: 0.575399 cumulative IPC: 0.596064 (Simulation time: 0 hr 23 min 31 sec) 
Heartbeat CPU 0 instructions: 660000000 cycles: 974903657 heartbeat IPC: 0.570367 cumulative IPC: 0.595584 (Simulation time: 0 hr 23 min 54 sec) 
Heartbeat CPU 0 instructions: 670000003 cycles: 991984058 heartbeat IPC: 0.585467 cumulative IPC: 0.595404 (Simulation time: 0 hr 24 min 16 sec) 
Heartbeat CPU 0 instructions: 680000003 cycles: 1010012416 heartbeat IPC: 0.554682 cumulative IPC: 0.594651 (Simulation time: 0 hr 24 min 39 sec) 
Heartbeat CPU 0 instructions: 690000000 cycles: 1026705134 heartbeat IPC: 0.599063 cumulative IPC: 0.594725 (Simulation time: 0 hr 25 min 1 sec) 
Heartbeat CPU 0 instructions: 700000001 cycles: 1043826528 heartbeat IPC: 0.584065 cumulative IPC: 0.594545 (Simulation time: 0 hr 25 min 23 sec) 
Heartbeat CPU 0 instructions: 710000003 cycles: 1060865237 heartbeat IPC: 0.586899 cumulative IPC: 0.594418 (Simulation time: 0 hr 25 min 46 sec) 
Heartbeat CPU 0 instructions: 720000000 cycles: 1078773218 heartbeat IPC: 0.55841 cumulative IPC: 0.5938 (Simulation time: 0 hr 26 min 8 sec) 
Heartbeat CPU 0 instructions: 730000001 cycles: 1095437472 heartbeat IPC: 0.600087 cumulative IPC: 0.593899 (Simulation time: 0 hr 26 min 30 sec) 
Heartbeat CPU 0 instructions: 740000000 cycles: 1112490022 heartbeat IPC: 0.586423 cumulative IPC: 0.593781 (Simulation time: 0 hr 26 min 53 sec) 
Heartbeat CPU 0 instructions: 750000000 cycles: 1129413143 heartbeat IPC: 0.590908 cumulative IPC: 0.593736 (Simulation time: 0 hr 27 min 16 sec) 
Heartbeat CPU 0 instructions: 760000003 cycles: 1146336245 heartbeat IPC: 0.590908 cumulative IPC: 0.593693 (Simulation time: 0 hr 27 min 39 sec) 
Heartbeat CPU 0 instructions: 770000000 cycles: 1162228871 heartbeat IPC: 0.629222 cumulative IPC: 0.594194 (Simulation time: 0 hr 28 min 1 sec) 
Heartbeat CPU 0 instructions: 780000000 cycles: 1179125866 heartbeat IPC: 0.591821 cumulative IPC: 0.594159 (Simulation time: 0 hr 28 min 23 sec) 
Heartbeat CPU 0 instructions: 790000002 cycles: 1195929203 heartbeat IPC: 0.59512 cumulative IPC: 0.594173 (Simulation time: 0 hr 28 min 46 sec) 
Heartbeat CPU 0 instructions: 800000002 cycles: 1212690007 heartbeat IPC: 0.59663 cumulative IPC: 0.594208 (Simulation time: 0 hr 29 min 8 sec) 
Heartbeat CPU 0 instructions: 810000001 cycles: 1229403933 heartbeat IPC: 0.598303 cumulative IPC: 0.594265 (Simulation time: 0 hr 29 min 31 sec) 
Heartbeat CPU 0 instructions: 820000001 cycles: 1246011970 heartbeat IPC: 0.602118 cumulative IPC: 0.594373 (Simulation time: 0 hr 29 min 53 sec) 
Heartbeat CPU 0 instructions: 830000003 cycles: 1262613652 heartbeat IPC: 0.602349 cumulative IPC: 0.594481 (Simulation time: 0 hr 30 min 15 sec) 
Heartbeat CPU 0 instructions: 840000001 cycles: 1278984654 heartbeat IPC: 0.610836 cumulative IPC: 0.594696 (Simulation time: 0 hr 30 min 38 sec) 
Heartbeat CPU 0 instructions: 850000002 cycles: 1294947109 heartbeat IPC: 0.62647 cumulative IPC: 0.595098 (Simulation time: 0 hr 31 min 0 sec) 
Heartbeat CPU 0 instructions: 860000003 cycles: 1311367468 heartbeat IPC: 0.609 cumulative IPC: 0.595277 (Simulation time: 0 hr 31 min 22 sec) 
Heartbeat CPU 0 instructions: 870000003 cycles: 1327793223 heartbeat IPC: 0.6088 cumulative IPC: 0.595449 (Simulation time: 0 hr 31 min 44 sec) 
Heartbeat CPU 0 instructions: 880000000 cycles: 1343387466 heartbeat IPC: 0.641262 cumulative IPC: 0.595995 (Simulation time: 0 hr 32 min 6 sec) 
Heartbeat CPU 0 instructions: 890000000 cycles: 1359194602 heartbeat IPC: 0.632626 cumulative IPC: 0.596432 (Simulation time: 0 hr 32 min 28 sec) 
Heartbeat CPU 0 instructions: 900000003 cycles: 1375477675 heartbeat IPC: 0.614135 cumulative IPC: 0.596647 (Simulation time: 0 hr 32 min 50 sec) 
Heartbeat CPU 0 instructions: 910000003 cycles: 1391888899 heartbeat IPC: 0.609339 cumulative IPC: 0.5968 (Simulation time: 0 hr 33 min 12 sec) 
Heartbeat CPU 0 instructions: 920000000 cycles: 1408384970 heartbeat IPC: 0.606205 cumulative IPC: 0.596913 (Simulation time: 0 hr 33 min 35 sec) 
Heartbeat CPU 0 instructions: 930000001 cycles: 1424153660 heartbeat IPC: 0.634168 cumulative IPC: 0.597336 (Simulation time: 0 hr 33 min 57 sec) 
Heartbeat CPU 0 instructions: 940000002 cycles: 1440534489 heartbeat IPC: 0.61047 cumulative IPC: 0.597489 (Simulation time: 0 hr 34 min 19 sec) 
Heartbeat CPU 0 instructions: 950000002 cycles: 1456935485 heartbeat IPC: 0.609719 cumulative IPC: 0.59763 (Simulation time: 0 hr 34 min 41 sec) 
Heartbeat CPU 0 instructions: 960000003 cycles: 1473047847 heartbeat IPC: 0.620642 cumulative IPC: 0.597888 (Simulation time: 0 hr 35 min 3 sec) 
Heartbeat CPU 0 instructions: 970000001 cycles: 1488969739 heartbeat IPC: 0.628066 cumulative IPC: 0.598218 (Simulation time: 0 hr 35 min 25 sec) 
Heartbeat CPU 0 instructions: 980000003 cycles: 1504340326 heartbeat IPC: 0.650593 cumulative IPC: 0.598766 (Simulation time: 0 hr 35 min 47 sec) 
Heartbeat CPU 0 instructions: 990000000 cycles: 1520421117 heartbeat IPC: 0.62186 cumulative IPC: 0.599016 (Simulation time: 0 hr 36 min 9 sec) 
Heartbeat CPU 0 instructions: 1000000000 cycles: 1536324771 heartbeat IPC: 0.628786 cumulative IPC: 0.599331 (Simulation time: 0 hr 36 min 31 sec) 
Heartbeat CPU 0 instructions: 1010000002 cycles: 1552685981 heartbeat IPC: 0.611202 cumulative IPC: 0.599459 (Simulation time: 0 hr 36 min 53 sec) 
Heartbeat CPU 0 instructions: 1020000000 cycles: 1569145898 heartbeat IPC: 0.607536 cumulative IPC: 0.599546 (Simulation time: 0 hr 37 min 15 sec) 
Heartbeat CPU 0 instructions: 1030000001 cycles: 1584846464 heartbeat IPC: 0.63692 cumulative IPC: 0.599924 (Simulation time: 0 hr 37 min 37 sec) 
Heartbeat CPU 0 instructions: 1040000001 cycles: 1601158437 heartbeat IPC: 0.613047 cumulative IPC: 0.600061 (Simulation time: 0 hr 38 min 0 sec) 
Heartbeat CPU 0 instructions: 1050000000 cycles: 1617598768 heartbeat IPC: 0.60826 cumulative IPC: 0.600146 (Simulation time: 0 hr 38 min 22 sec) 
Heartbeat CPU 0 instructions: 1060000000 cycles: 1633860534 heartbeat IPC: 0.614939 cumulative IPC: 0.600296 (Simulation time: 0 hr 38 min 44 sec) 
Heartbeat CPU 0 instructions: 1070000002 cycles: 1650149504 heartbeat IPC: 0.613912 cumulative IPC: 0.600434 (Simulation time: 0 hr 39 min 7 sec) 
Heartbeat CPU 0 instructions: 1080000001 cycles: 1665934570 heartbeat IPC: 0.63351 cumulative IPC: 0.600754 (Simulation time: 0 hr 39 min 28 sec) 
Heartbeat CPU 0 instructions: 1090000003 cycles: 1682716063 heartbeat IPC: 0.595895 cumulative IPC: 0.600704 (Simulation time: 0 hr 39 min 51 sec) 
Heartbeat CPU 0 instructions: 1100000000 cycles: 1699051878 heartbeat IPC: 0.612152 cumulative IPC: 0.600817 (Simulation time: 0 hr 40 min 13 sec) 
Finished CPU 0 instructions: 1000000001 cycles: 1664401094 cumulative IPC: 0.600817 (Simulation time: 0 hr 40 min 13 sec) 

ChampSim completed all CPUs

Region of Interest Statistics

CPU 0 cumulative IPC: 0.600817 instructions: 1000000001 cycles: 1664401094
L1D TOTAL     ACCESS:  150127535  HIT:  134777567  MISS:   15349968
L1D LOAD      ACCESS:  132367734  HIT:  117583037  MISS:   14784697
L1D RFO       ACCESS:   17759801  HIT:   17194530  MISS:     565271
L1D PREFETCH  ACCESS:          0  HIT:          0  MISS:          0
L1D WRITEBACK ACCESS:          0  HIT:          0  MISS:          0
L1D PREFETCH  REQUESTED:          0  ISSUED:          0  USEFUL:          0  USELESS:          0
L1D AVERAGE MISS LATENCY: 145.632 cycles
L1I TOTAL     ACCESS:  210283911  HIT:  210283233  MISS:        678
L1I LOAD      ACCESS:  210283911  HIT:  210283233  MISS:        678
L1I RFO       ACCESS:          0  HIT:          0  MISS:          0
L1I PREFETCH  ACCESS:          0  HIT:          0  MISS:          0
L1I WRITEBACK ACCESS:          0  HIT:          0  MISS:          0
L1I PREFETCH  REQUESTED:          0  ISSUED:          0  USEFUL:          0  USELESS:          0
L1I AVERAGE MISS LATENCY: 230.473 cycles
L2C TOTAL     ACCESS:   16334948  HIT:    3544166  MISS:   12790782
L2C LOAD      ACCESS:   14785309  HIT:    2450297  MISS:   12335012
L2C RFO       ACCESS:     565169  HIT:     111333  MISS:     453836
L2C PREFETCH  ACCESS:          0  HIT:          0  MISS:          0
L2C WRITEBACK ACCESS:     984470  HIT:     982536  MISS:       1934
L2C PREFETCH  REQUESTED:          0  ISSUED:          0  USEFUL:          0  USELESS:          0
L2C AVERAGE MISS LATENCY: 159.795 cycles
LLC TOTAL     ACCESS:   13596499  HIT:    2596459  MISS:   11000040
LLC LOAD      ACCESS:   12334988  HIT:    1528706  MISS:   10806282
LLC RFO       ACCESS:     453831  HIT:     260610  MISS:     193221
LLC PREFETCH  ACCESS:          0  HIT:          0  MISS:          0
LLC WRITEBACK ACCESS:     807680  HIT:     807143  MISS:        537
LLC PREFETCH  REQUESTED:          0  ISSUED:          0  USEFUL:          0  USELESS:          0
LLC AVERAGE MISS LATENCY: 138.823 cycles
Major fault: 0 Minor fault: 4441

DRAM Statistics
 CHANNEL 0
 RQ ROW_BUFFER_HIT:    7645741  ROW_BUFFER_MISS:    3353747
 DBUS_CONGESTED:     498568
 WQ ROW_BUFFER_HIT:     251670  ROW_BUFFER_MISS:     160279  FULL:          0

 AVG_CONGESTED_CYCLE: 4

CPU 0 Branch Prediction Accuracy: 95.5612% MPKI: 4.19749 Average ROB Occupancy at Mispredict: 157.446

Branch types
NOT_BRANCH: 905436987 90.5437%
BRANCH_DIRECT_JUMP: 1644011 0.164401%
BRANCH_INDIRECT: 0 0%
BRANCH_CONDITIONAL: 88615621 8.86156%
BRANCH_DIRECT_CALL: 2151557 0.215156%
BRANCH_INDIRECT_CALL: 112 1.12e-05%
BRANCH_RETURN: 2151669 0.215167%
BRANCH_OTHER: 0 0%

