
*** ChampSim Multicore Out-of-Order Simulator ***

Warmup Instructions: 100000000
Simulation Instructions: 1000000000
Number of CPUs: 1
LLC sets: 2048
LLC ways: 16
Off-chip DRAM Size: 4096 MB Channels: 1 Width: 64-bit Data Rate: 3200 MT/s

CPU 0 runs /scratch/user/kevin.weston/dpc3-traces/482.champsimtrace.xz
CPU 0 Bimodal branch predictor
Initialize DRRIP state
Assign rand_sets[0]: 454  LLC: 2048
rand_sets[0]: 454
Assign rand_sets[1]: 1662  LLC: 2048
rand_sets[1]: 1662
Assign rand_sets[2]: 1921  LLC: 2048
rand_sets[2]: 1921
Assign rand_sets[3]: 1131  LLC: 2048
rand_sets[3]: 1131
Assign rand_sets[4]: 331  LLC: 2048
rand_sets[4]: 331
Assign rand_sets[5]: 1531  LLC: 2048
rand_sets[5]: 1531
Assign rand_sets[6]: 482  LLC: 2048
rand_sets[6]: 482
Assign rand_sets[7]: 1275  LLC: 2048
rand_sets[7]: 1275
Assign rand_sets[8]: 1876  LLC: 2048
rand_sets[8]: 1876
Assign rand_sets[9]: 2038  LLC: 2048
rand_sets[9]: 2038
Assign rand_sets[10]: 701  LLC: 2048
rand_sets[10]: 701
Assign rand_sets[11]: 479  LLC: 2048
rand_sets[11]: 479
Assign rand_sets[12]: 892  LLC: 2048
rand_sets[12]: 892
Assign rand_sets[13]: 1820  LLC: 2048
rand_sets[13]: 1820
Assign rand_sets[14]: 1505  LLC: 2048
rand_sets[14]: 1505
Assign rand_sets[15]: 1159  LLC: 2048
rand_sets[15]: 1159
Assign rand_sets[16]: 513  LLC: 2048
rand_sets[16]: 513
Assign rand_sets[17]: 703  LLC: 2048
rand_sets[17]: 703
Assign rand_sets[18]: 561  LLC: 2048
rand_sets[18]: 561
Assign rand_sets[19]: 990  LLC: 2048
rand_sets[19]: 990
Assign rand_sets[20]: 342  LLC: 2048
rand_sets[20]: 342
Assign rand_sets[21]: 882  LLC: 2048
rand_sets[21]: 882
Assign rand_sets[22]: 15  LLC: 2048
rand_sets[22]: 15
Assign rand_sets[23]: 71  LLC: 2048
rand_sets[23]: 71
Assign rand_sets[24]: 1127  LLC: 2048
rand_sets[24]: 1127
Assign rand_sets[25]: 1382  LLC: 2048
rand_sets[25]: 1382
Assign rand_sets[26]: 647  LLC: 2048
rand_sets[26]: 647
Assign rand_sets[27]: 857  LLC: 2048
rand_sets[27]: 857
Assign rand_sets[28]: 1450  LLC: 2048
rand_sets[28]: 1450
Assign rand_sets[29]: 1160  LLC: 2048
rand_sets[29]: 1160
Assign rand_sets[30]: 1852  LLC: 2048
rand_sets[30]: 1852
Assign rand_sets[31]: 1881  LLC: 2048
rand_sets[31]: 1881
Assign rand_sets[32]: 1770  LLC: 2048
rand_sets[32]: 1770
Assign rand_sets[33]: 1622  LLC: 2048
rand_sets[33]: 1622
Assign rand_sets[34]: 275  LLC: 2048
rand_sets[34]: 275
Assign rand_sets[35]: 635  LLC: 2048
rand_sets[35]: 635
Assign rand_sets[36]: 466  LLC: 2048
rand_sets[36]: 466
Assign rand_sets[37]: 1413  LLC: 2048
rand_sets[37]: 1413
Assign rand_sets[38]: 417  LLC: 2048
rand_sets[38]: 417
Assign rand_sets[39]: 472  LLC: 2048
rand_sets[39]: 472
Assign rand_sets[40]: 1340  LLC: 2048
rand_sets[40]: 1340
Assign rand_sets[41]: 852  LLC: 2048
rand_sets[41]: 852
Assign rand_sets[42]: 1365  LLC: 2048
rand_sets[42]: 1365
Assign rand_sets[43]: 47  LLC: 2048
rand_sets[43]: 47
Assign rand_sets[44]: 823  LLC: 2048
rand_sets[44]: 823
Assign rand_sets[45]: 686  LLC: 2048
rand_sets[45]: 686
Assign rand_sets[46]: 1637  LLC: 2048
rand_sets[46]: 1637
Assign rand_sets[47]: 1115  LLC: 2048
rand_sets[47]: 1115
Assign rand_sets[48]: 986  LLC: 2048
rand_sets[48]: 986
Assign rand_sets[49]: 258  LLC: 2048
rand_sets[49]: 258
Assign rand_sets[50]: 633  LLC: 2048
rand_sets[50]: 633
Assign rand_sets[51]: 920  LLC: 2048
rand_sets[51]: 920
Assign rand_sets[52]: 204  LLC: 2048
rand_sets[52]: 204
Assign rand_sets[53]: 227  LLC: 2048
rand_sets[53]: 227
Assign rand_sets[54]: 1818  LLC: 2048
rand_sets[54]: 1818
Assign rand_sets[55]: 886  LLC: 2048
rand_sets[55]: 886
Assign rand_sets[56]: 1422  LLC: 2048
rand_sets[56]: 1422
Assign rand_sets[57]: 607  LLC: 2048
rand_sets[57]: 607
Assign rand_sets[58]: 217  LLC: 2048
rand_sets[58]: 217
Assign rand_sets[59]: 1945  LLC: 2048
rand_sets[59]: 1945
Assign rand_sets[60]: 143  LLC: 2048
rand_sets[60]: 143
Assign rand_sets[61]: 1311  LLC: 2048
rand_sets[61]: 1311
Assign rand_sets[62]: 319  LLC: 2048
rand_sets[62]: 319
Assign rand_sets[63]: 1846  LLC: 2048
rand_sets[63]: 1846
Heartbeat CPU 0 instructions: 10000000 cycles: 3498377 heartbeat IPC: 2.85847 cumulative IPC: 2.85847 (Simulation time: 0 hr 0 min 19 sec) 
Heartbeat CPU 0 instructions: 20000002 cycles: 6994164 heartbeat IPC: 2.86059 cumulative IPC: 2.85953 (Simulation time: 0 hr 0 min 38 sec) 
Heartbeat CPU 0 instructions: 30000002 cycles: 10500205 heartbeat IPC: 2.85222 cumulative IPC: 2.85709 (Simulation time: 0 hr 0 min 57 sec) 
Heartbeat CPU 0 instructions: 40000001 cycles: 13993295 heartbeat IPC: 2.86279 cumulative IPC: 2.85851 (Simulation time: 0 hr 1 min 16 sec) 
Heartbeat CPU 0 instructions: 50000002 cycles: 17431170 heartbeat IPC: 2.90877 cumulative IPC: 2.86842 (Simulation time: 0 hr 1 min 34 sec) 
Heartbeat CPU 0 instructions: 60000003 cycles: 20904830 heartbeat IPC: 2.87881 cumulative IPC: 2.87015 (Simulation time: 0 hr 1 min 53 sec) 
Heartbeat CPU 0 instructions: 70000001 cycles: 24318979 heartbeat IPC: 2.92899 cumulative IPC: 2.87841 (Simulation time: 0 hr 2 min 11 sec) 
Heartbeat CPU 0 instructions: 80000002 cycles: 27748575 heartbeat IPC: 2.9158 cumulative IPC: 2.88303 (Simulation time: 0 hr 2 min 30 sec) 
Heartbeat CPU 0 instructions: 90000001 cycles: 31190206 heartbeat IPC: 2.9056 cumulative IPC: 2.88552 (Simulation time: 0 hr 2 min 48 sec) 
Heartbeat CPU 0 instructions: 100000000 cycles: 34639786 heartbeat IPC: 2.8989 cumulative IPC: 2.88685 (Simulation time: 0 hr 3 min 7 sec) 

Warmup complete CPU 0 instructions: 100000004 cycles: 34639787 (Simulation time: 0 hr 3 min 7 sec) 

Heartbeat CPU 0 instructions: 110000000 cycles: 48159141 heartbeat IPC: 0.73968 cumulative IPC: 0.73968 (Simulation time: 0 hr 3 min 27 sec) 
Heartbeat CPU 0 instructions: 120000001 cycles: 62097209 heartbeat IPC: 0.71746 cumulative IPC: 0.7284 (Simulation time: 0 hr 3 min 47 sec) 
Heartbeat CPU 0 instructions: 130000000 cycles: 76265520 heartbeat IPC: 0.7058 cumulative IPC: 0.720708 (Simulation time: 0 hr 4 min 7 sec) 
Heartbeat CPU 0 instructions: 140000003 cycles: 90842410 heartbeat IPC: 0.686018 cumulative IPC: 0.711711 (Simulation time: 0 hr 4 min 28 sec) 
Heartbeat CPU 0 instructions: 150000002 cycles: 106126413 heartbeat IPC: 0.654279 cumulative IPC: 0.699431 (Simulation time: 0 hr 4 min 49 sec) 
Heartbeat CPU 0 instructions: 160000001 cycles: 121007021 heartbeat IPC: 0.672015 cumulative IPC: 0.694708 (Simulation time: 0 hr 5 min 10 sec) 
Heartbeat CPU 0 instructions: 170000000 cycles: 135924918 heartbeat IPC: 0.670336 cumulative IPC: 0.691118 (Simulation time: 0 hr 5 min 31 sec) 
Heartbeat CPU 0 instructions: 180000002 cycles: 150890349 heartbeat IPC: 0.668207 cumulative IPC: 0.688169 (Simulation time: 0 hr 5 min 52 sec) 
Heartbeat CPU 0 instructions: 190000003 cycles: 165896981 heartbeat IPC: 0.666372 cumulative IPC: 0.685677 (Simulation time: 0 hr 6 min 13 sec) 
Heartbeat CPU 0 instructions: 200000000 cycles: 180795099 heartbeat IPC: 0.671226 cumulative IPC: 0.684204 (Simulation time: 0 hr 6 min 34 sec) 
Heartbeat CPU 0 instructions: 210000000 cycles: 195775305 heartbeat IPC: 0.667548 cumulative IPC: 0.682655 (Simulation time: 0 hr 6 min 55 sec) 
Heartbeat CPU 0 instructions: 220000000 cycles: 208904349 heartbeat IPC: 0.76167 cumulative IPC: 0.688608 (Simulation time: 0 hr 7 min 15 sec) 
Heartbeat CPU 0 instructions: 230000003 cycles: 222687931 heartbeat IPC: 0.725501 cumulative IPC: 0.691312 (Simulation time: 0 hr 7 min 35 sec) 
Heartbeat CPU 0 instructions: 240000003 cycles: 235902895 heartbeat IPC: 0.756718 cumulative IPC: 0.695607 (Simulation time: 0 hr 7 min 55 sec) 
Heartbeat CPU 0 instructions: 250000001 cycles: 248945391 heartbeat IPC: 0.766724 cumulative IPC: 0.699935 (Simulation time: 0 hr 8 min 15 sec) 
Heartbeat CPU 0 instructions: 260000001 cycles: 262143060 heartbeat IPC: 0.75771 cumulative IPC: 0.703287 (Simulation time: 0 hr 8 min 35 sec) 
Heartbeat CPU 0 instructions: 270000002 cycles: 276763230 heartbeat IPC: 0.683987 cumulative IPC: 0.702121 (Simulation time: 0 hr 8 min 56 sec) 
Heartbeat CPU 0 instructions: 280000000 cycles: 290399247 heartbeat IPC: 0.733352 cumulative IPC: 0.703786 (Simulation time: 0 hr 9 min 16 sec) 
Heartbeat CPU 0 instructions: 290000000 cycles: 304758707 heartbeat IPC: 0.696405 cumulative IPC: 0.703394 (Simulation time: 0 hr 9 min 37 sec) 
Heartbeat CPU 0 instructions: 300000001 cycles: 318756304 heartbeat IPC: 0.714408 cumulative IPC: 0.703937 (Simulation time: 0 hr 9 min 57 sec) 
Heartbeat CPU 0 instructions: 310000000 cycles: 332934083 heartbeat IPC: 0.705329 cumulative IPC: 0.704003 (Simulation time: 0 hr 10 min 17 sec) 
Heartbeat CPU 0 instructions: 320000000 cycles: 347235995 heartbeat IPC: 0.699207 cumulative IPC: 0.703783 (Simulation time: 0 hr 10 min 38 sec) 
Heartbeat CPU 0 instructions: 330000000 cycles: 361985350 heartbeat IPC: 0.677996 cumulative IPC: 0.702621 (Simulation time: 0 hr 10 min 59 sec) 
Heartbeat CPU 0 instructions: 340000000 cycles: 376982703 heartbeat IPC: 0.666784 cumulative IPC: 0.701051 (Simulation time: 0 hr 11 min 20 sec) 
Heartbeat CPU 0 instructions: 350000003 cycles: 392102729 heartbeat IPC: 0.661375 cumulative IPC: 0.699373 (Simulation time: 0 hr 11 min 41 sec) 
Heartbeat CPU 0 instructions: 360000001 cycles: 407345912 heartbeat IPC: 0.656031 cumulative IPC: 0.697601 (Simulation time: 0 hr 12 min 2 sec) 
Heartbeat CPU 0 instructions: 370000001 cycles: 422704556 heartbeat IPC: 0.651099 cumulative IPC: 0.69576 (Simulation time: 0 hr 12 min 23 sec) 
Heartbeat CPU 0 instructions: 380000003 cycles: 438133960 heartbeat IPC: 0.648113 cumulative IPC: 0.693938 (Simulation time: 0 hr 12 min 45 sec) 
Heartbeat CPU 0 instructions: 390000000 cycles: 454141543 heartbeat IPC: 0.624704 cumulative IPC: 0.691296 (Simulation time: 0 hr 13 min 6 sec) 
Heartbeat CPU 0 instructions: 400000000 cycles: 469889917 heartbeat IPC: 0.634986 cumulative IPC: 0.689259 (Simulation time: 0 hr 13 min 27 sec) 
Heartbeat CPU 0 instructions: 410000001 cycles: 485489755 heartbeat IPC: 0.641032 cumulative IPC: 0.68759 (Simulation time: 0 hr 13 min 49 sec) 
Heartbeat CPU 0 instructions: 420000000 cycles: 500406419 heartbeat IPC: 0.670391 cumulative IPC: 0.687039 (Simulation time: 0 hr 14 min 10 sec) 
Heartbeat CPU 0 instructions: 430000002 cycles: 516069941 heartbeat IPC: 0.638426 cumulative IPC: 0.685458 (Simulation time: 0 hr 14 min 31 sec) 
Heartbeat CPU 0 instructions: 440000000 cycles: 532362898 heartbeat IPC: 0.613762 cumulative IPC: 0.683111 (Simulation time: 0 hr 14 min 53 sec) 
Heartbeat CPU 0 instructions: 450000000 cycles: 548247836 heartbeat IPC: 0.629527 cumulative IPC: 0.681453 (Simulation time: 0 hr 15 min 14 sec) 
Heartbeat CPU 0 instructions: 460000000 cycles: 563980686 heartbeat IPC: 0.635613 cumulative IPC: 0.680091 (Simulation time: 0 hr 15 min 36 sec) 
Heartbeat CPU 0 instructions: 470000002 cycles: 580292525 heartbeat IPC: 0.613052 cumulative IPC: 0.678087 (Simulation time: 0 hr 15 min 58 sec) 
Heartbeat CPU 0 instructions: 480000000 cycles: 596153246 heartbeat IPC: 0.630488 cumulative IPC: 0.676742 (Simulation time: 0 hr 16 min 19 sec) 
Heartbeat CPU 0 instructions: 490000001 cycles: 612076864 heartbeat IPC: 0.627998 cumulative IPC: 0.675398 (Simulation time: 0 hr 16 min 41 sec) 
Heartbeat CPU 0 instructions: 500000003 cycles: 628187197 heartbeat IPC: 0.62072 cumulative IPC: 0.673914 (Simulation time: 0 hr 17 min 3 sec) 
Heartbeat CPU 0 instructions: 510000000 cycles: 644279378 heartbeat IPC: 0.62142 cumulative IPC: 0.672529 (Simulation time: 0 hr 17 min 24 sec) 
Heartbeat CPU 0 instructions: 520000001 cycles: 660249651 heartbeat IPC: 0.626163 cumulative IPC: 0.671345 (Simulation time: 0 hr 17 min 46 sec) 
Heartbeat CPU 0 instructions: 530000003 cycles: 676393830 heartbeat IPC: 0.619418 cumulative IPC: 0.670039 (Simulation time: 0 hr 18 min 7 sec) 
Heartbeat CPU 0 instructions: 540000002 cycles: 692505668 heartbeat IPC: 0.620662 cumulative IPC: 0.668829 (Simulation time: 0 hr 18 min 29 sec) 
Heartbeat CPU 0 instructions: 550000000 cycles: 708458951 heartbeat IPC: 0.62683 cumulative IPC: 0.667835 (Simulation time: 0 hr 18 min 51 sec) 
Heartbeat CPU 0 instructions: 560000001 cycles: 724721845 heartbeat IPC: 0.614897 cumulative IPC: 0.666587 (Simulation time: 0 hr 19 min 13 sec) 
Heartbeat CPU 0 instructions: 570000003 cycles: 740697916 heartbeat IPC: 0.625936 cumulative IPC: 0.665668 (Simulation time: 0 hr 19 min 34 sec) 
Heartbeat CPU 0 instructions: 580000000 cycles: 756610400 heartbeat IPC: 0.628437 cumulative IPC: 0.664847 (Simulation time: 0 hr 19 min 56 sec) 
Heartbeat CPU 0 instructions: 590000002 cycles: 773024745 heartbeat IPC: 0.609223 cumulative IPC: 0.66361 (Simulation time: 0 hr 20 min 18 sec) 
Heartbeat CPU 0 instructions: 600000000 cycles: 788910724 heartbeat IPC: 0.629486 cumulative IPC: 0.662892 (Simulation time: 0 hr 20 min 39 sec) 
Heartbeat CPU 0 instructions: 610000000 cycles: 803966881 heartbeat IPC: 0.66418 cumulative IPC: 0.662917 (Simulation time: 0 hr 21 min 0 sec) 
Heartbeat CPU 0 instructions: 620000003 cycles: 820353611 heartbeat IPC: 0.61025 cumulative IPC: 0.661819 (Simulation time: 0 hr 21 min 22 sec) 
Heartbeat CPU 0 instructions: 630000002 cycles: 836295799 heartbeat IPC: 0.627266 cumulative IPC: 0.661131 (Simulation time: 0 hr 21 min 43 sec) 
Heartbeat CPU 0 instructions: 640000000 cycles: 852105872 heartbeat IPC: 0.632508 cumulative IPC: 0.660578 (Simulation time: 0 hr 22 min 5 sec) 
Heartbeat CPU 0 instructions: 650000000 cycles: 868451779 heartbeat IPC: 0.611774 cumulative IPC: 0.659621 (Simulation time: 0 hr 22 min 27 sec) 
Heartbeat CPU 0 instructions: 660000000 cycles: 884391926 heartbeat IPC: 0.627347 cumulative IPC: 0.659016 (Simulation time: 0 hr 22 min 48 sec) 
Heartbeat CPU 0 instructions: 670000003 cycles: 900124032 heartbeat IPC: 0.635643 cumulative IPC: 0.658591 (Simulation time: 0 hr 23 min 10 sec) 
Heartbeat CPU 0 instructions: 680000001 cycles: 916685154 heartbeat IPC: 0.603824 cumulative IPC: 0.657563 (Simulation time: 0 hr 23 min 32 sec) 
Heartbeat CPU 0 instructions: 690000000 cycles: 932268295 heartbeat IPC: 0.641719 cumulative IPC: 0.657287 (Simulation time: 0 hr 23 min 53 sec) 
Heartbeat CPU 0 instructions: 700000001 cycles: 947908009 heartbeat IPC: 0.639398 cumulative IPC: 0.656981 (Simulation time: 0 hr 24 min 15 sec) 
Heartbeat CPU 0 instructions: 710000003 cycles: 963409829 heartbeat IPC: 0.645086 cumulative IPC: 0.656783 (Simulation time: 0 hr 24 min 36 sec) 
Heartbeat CPU 0 instructions: 720000000 cycles: 979880229 heartbeat IPC: 0.60715 cumulative IPC: 0.655918 (Simulation time: 0 hr 24 min 58 sec) 
Heartbeat CPU 0 instructions: 730000001 cycles: 995220238 heartbeat IPC: 0.65189 cumulative IPC: 0.655853 (Simulation time: 0 hr 25 min 19 sec) 
Heartbeat CPU 0 instructions: 740000000 cycles: 1010739136 heartbeat IPC: 0.644376 cumulative IPC: 0.655671 (Simulation time: 0 hr 25 min 40 sec) 
Heartbeat CPU 0 instructions: 750000000 cycles: 1026085627 heartbeat IPC: 0.651615 cumulative IPC: 0.655608 (Simulation time: 0 hr 26 min 2 sec) 
Heartbeat CPU 0 instructions: 760000003 cycles: 1041389625 heartbeat IPC: 0.653424 cumulative IPC: 0.655575 (Simulation time: 0 hr 26 min 23 sec) 
Heartbeat CPU 0 instructions: 770000000 cycles: 1055745533 heartbeat IPC: 0.696577 cumulative IPC: 0.656151 (Simulation time: 0 hr 26 min 43 sec) 
Heartbeat CPU 0 instructions: 780000000 cycles: 1070931663 heartbeat IPC: 0.658496 cumulative IPC: 0.656186 (Simulation time: 0 hr 27 min 4 sec) 
Heartbeat CPU 0 instructions: 790000002 cycles: 1086035702 heartbeat IPC: 0.662075 cumulative IPC: 0.65627 (Simulation time: 0 hr 27 min 25 sec) 
Heartbeat CPU 0 instructions: 800000002 cycles: 1101085146 heartbeat IPC: 0.664476 cumulative IPC: 0.656386 (Simulation time: 0 hr 27 min 46 sec) 
Heartbeat CPU 0 instructions: 810000001 cycles: 1116075256 heartbeat IPC: 0.667106 cumulative IPC: 0.656535 (Simulation time: 0 hr 28 min 7 sec) 
Heartbeat CPU 0 instructions: 820000001 cycles: 1130957225 heartbeat IPC: 0.671954 cumulative IPC: 0.656744 (Simulation time: 0 hr 28 min 28 sec) 
Heartbeat CPU 0 instructions: 830000003 cycles: 1145674776 heartbeat IPC: 0.679461 cumulative IPC: 0.657045 (Simulation time: 0 hr 28 min 49 sec) 
Heartbeat CPU 0 instructions: 840000001 cycles: 1160009655 heartbeat IPC: 0.697599 cumulative IPC: 0.657562 (Simulation time: 0 hr 29 min 9 sec) 
Heartbeat CPU 0 instructions: 850000002 cycles: 1174129538 heartbeat IPC: 0.708221 cumulative IPC: 0.658189 (Simulation time: 0 hr 29 min 30 sec) 
Heartbeat CPU 0 instructions: 860000003 cycles: 1188714955 heartbeat IPC: 0.685616 cumulative IPC: 0.658536 (Simulation time: 0 hr 29 min 51 sec) 
Heartbeat CPU 0 instructions: 870000003 cycles: 1203246388 heartbeat IPC: 0.688163 cumulative IPC: 0.658904 (Simulation time: 0 hr 30 min 11 sec) 
Heartbeat CPU 0 instructions: 880000000 cycles: 1217057579 heartbeat IPC: 0.72405 cumulative IPC: 0.659665 (Simulation time: 0 hr 30 min 31 sec) 
Heartbeat CPU 0 instructions: 890000000 cycles: 1230906440 heartbeat IPC: 0.722081 cumulative IPC: 0.660388 (Simulation time: 0 hr 30 min 52 sec) 
Heartbeat CPU 0 instructions: 900000003 cycles: 1245305142 heartbeat IPC: 0.694507 cumulative IPC: 0.660794 (Simulation time: 0 hr 31 min 12 sec) 
Heartbeat CPU 0 instructions: 910000003 cycles: 1259840406 heartbeat IPC: 0.687982 cumulative IPC: 0.661116 (Simulation time: 0 hr 31 min 33 sec) 
Heartbeat CPU 0 instructions: 920000000 cycles: 1274214499 heartbeat IPC: 0.695696 cumulative IPC: 0.661517 (Simulation time: 0 hr 31 min 54 sec) 
Heartbeat CPU 0 instructions: 930000001 cycles: 1288095900 heartbeat IPC: 0.720388 cumulative IPC: 0.662169 (Simulation time: 0 hr 32 min 14 sec) 
Heartbeat CPU 0 instructions: 940000002 cycles: 1302604232 heartbeat IPC: 0.689259 cumulative IPC: 0.662479 (Simulation time: 0 hr 32 min 35 sec) 
Heartbeat CPU 0 instructions: 950000002 cycles: 1317039184 heartbeat IPC: 0.692763 cumulative IPC: 0.66282 (Simulation time: 0 hr 32 min 55 sec) 
Heartbeat CPU 0 instructions: 960000003 cycles: 1331056111 heartbeat IPC: 0.713423 cumulative IPC: 0.663367 (Simulation time: 0 hr 33 min 16 sec) 
Heartbeat CPU 0 instructions: 970000001 cycles: 1345044299 heartbeat IPC: 0.714889 cumulative IPC: 0.663917 (Simulation time: 0 hr 33 min 36 sec) 
Heartbeat CPU 0 instructions: 980000003 cycles: 1358741413 heartbeat IPC: 0.730081 cumulative IPC: 0.664602 (Simulation time: 0 hr 33 min 56 sec) 
Heartbeat CPU 0 instructions: 990000000 cycles: 1372685903 heartbeat IPC: 0.717129 cumulative IPC: 0.665149 (Simulation time: 0 hr 34 min 16 sec) 
Heartbeat CPU 0 instructions: 1000000000 cycles: 1386656975 heartbeat IPC: 0.715765 cumulative IPC: 0.665672 (Simulation time: 0 hr 34 min 37 sec) 
Heartbeat CPU 0 instructions: 1010000002 cycles: 1401136193 heartbeat IPC: 0.690645 cumulative IPC: 0.665937 (Simulation time: 0 hr 34 min 58 sec) 
Heartbeat CPU 0 instructions: 1020000000 cycles: 1415533368 heartbeat IPC: 0.694581 cumulative IPC: 0.666235 (Simulation time: 0 hr 35 min 18 sec) 
Heartbeat CPU 0 instructions: 1030000001 cycles: 1429221799 heartbeat IPC: 0.730544 cumulative IPC: 0.666866 (Simulation time: 0 hr 35 min 39 sec) 
Heartbeat CPU 0 instructions: 1040000001 cycles: 1443673714 heartbeat IPC: 0.69195 cumulative IPC: 0.667124 (Simulation time: 0 hr 35 min 59 sec) 
Heartbeat CPU 0 instructions: 1050000000 cycles: 1458181779 heartbeat IPC: 0.689272 cumulative IPC: 0.667349 (Simulation time: 0 hr 36 min 20 sec) 
Heartbeat CPU 0 instructions: 1060000000 cycles: 1472375419 heartbeat IPC: 0.704541 cumulative IPC: 0.667717 (Simulation time: 0 hr 36 min 40 sec) 
Heartbeat CPU 0 instructions: 1070000002 cycles: 1486720297 heartbeat IPC: 0.697113 cumulative IPC: 0.668007 (Simulation time: 0 hr 37 min 1 sec) 
Heartbeat CPU 0 instructions: 1080000001 cycles: 1500617744 heartbeat IPC: 0.719557 cumulative IPC: 0.668496 (Simulation time: 0 hr 37 min 21 sec) 
Heartbeat CPU 0 instructions: 1090000001 cycles: 1515300414 heartbeat IPC: 0.681075 cumulative IPC: 0.66862 (Simulation time: 0 hr 37 min 42 sec) 
Heartbeat CPU 0 instructions: 1100000000 cycles: 1529581613 heartbeat IPC: 0.700221 cumulative IPC: 0.668922 (Simulation time: 0 hr 38 min 3 sec) 
Finished CPU 0 instructions: 1000000001 cycles: 1494941830 cumulative IPC: 0.668922 (Simulation time: 0 hr 38 min 3 sec) 

ChampSim completed all CPUs

Region of Interest Statistics

CPU 0 cumulative IPC: 0.668922 instructions: 1000000001 cycles: 1494941830
L1D TOTAL     ACCESS:  152513674  HIT:  137163722  MISS:   15349952
L1D LOAD      ACCESS:  134752482  HIT:  119967852  MISS:   14784630
L1D RFO       ACCESS:   17761192  HIT:   17195870  MISS:     565322
L1D PREFETCH  ACCESS:          0  HIT:          0  MISS:          0
L1D WRITEBACK ACCESS:          0  HIT:          0  MISS:          0
L1D PREFETCH  REQUESTED:          0  ISSUED:          0  USEFUL:          0  USELESS:          0
L1D AVERAGE MISS LATENCY: 120.62 cycles
L1I TOTAL     ACCESS:  210117519  HIT:  210116841  MISS:        678
L1I LOAD      ACCESS:  210117519  HIT:  210116841  MISS:        678
L1I RFO       ACCESS:          0  HIT:          0  MISS:          0
L1I PREFETCH  ACCESS:          0  HIT:          0  MISS:          0
L1I WRITEBACK ACCESS:          0  HIT:          0  MISS:          0
L1I PREFETCH  REQUESTED:          0  ISSUED:          0  USEFUL:          0  USELESS:          0
L1I AVERAGE MISS LATENCY: 231.317 cycles
L2C TOTAL     ACCESS:   16334936  HIT:    3623178  MISS:   12711758
L2C LOAD      ACCESS:   14785243  HIT:    2530259  MISS:   12254984
L2C RFO       ACCESS:     565218  HIT:     110416  MISS:     454802
L2C PREFETCH  ACCESS:          0  HIT:          0  MISS:          0
L2C WRITEBACK ACCESS:     984475  HIT:     982503  MISS:       1972
L2C PREFETCH  REQUESTED:          0  ISSUED:          0  USEFUL:          0  USELESS:          0
L2C AVERAGE MISS LATENCY: 130.613 cycles
LLC TOTAL     ACCESS:   13519328  HIT:    4906036  MISS:    8613292
LLC LOAD      ACCESS:   12254966  HIT:    3879274  MISS:    8375692
LLC RFO       ACCESS:     454775  HIT:     343031  MISS:     111744
LLC PREFETCH  ACCESS:          0  HIT:          0  MISS:          0
LLC WRITEBACK ACCESS:     809587  HIT:     683731  MISS:     125856
LLC PREFETCH  REQUESTED:          0  ISSUED:          0  USEFUL:          0  USELESS:          0
LLC AVERAGE MISS LATENCY: 133.062 cycles
Major fault: 0 Minor fault: 4441

DRAM Statistics
 CHANNEL 0
 RQ ROW_BUFFER_HIT:    5913799  ROW_BUFFER_MISS:    2572915
 DBUS_CONGESTED:     276693
 WQ ROW_BUFFER_HIT:     110624  ROW_BUFFER_MISS:     104693  FULL:          0

 AVG_CONGESTED_CYCLE: 4

CPU 0 Branch Prediction Accuracy: 95.5612% MPKI: 4.19749 Average ROB Occupancy at Mispredict: 149.535

Branch types
NOT_BRANCH: 905436987 90.5437%
BRANCH_DIRECT_JUMP: 1644011 0.164401%
BRANCH_INDIRECT: 0 0%
BRANCH_CONDITIONAL: 88615621 8.86156%
BRANCH_DIRECT_CALL: 2151557 0.215156%
BRANCH_INDIRECT_CALL: 112 1.12e-05%
BRANCH_RETURN: 2151669 0.215167%
BRANCH_OTHER: 0 0%

