
*** ChampSim Multicore Out-of-Order Simulator ***

Warmup Instructions: 100000000
Simulation Instructions: 1000000000
Number of CPUs: 1
LLC sets: 2048
LLC ways: 16
Off-chip DRAM Size: 4096 MB Channels: 1 Width: 64-bit Data Rate: 3200 MT/s

CPU 0 runs /scratch/user/kevin.weston/dpc3-traces/482.champsimtrace.xz
CPU 0 Bimodal branch predictor
Per-line RRPV Initialized
PRRIP State Initialized
Assign SAMPLER_SET[0]: 454  LLC: 2048
SAMPLER_SET[0]: 454
Assign SAMPLER_SET[1]: 1662  LLC: 2048
SAMPLER_SET[1]: 1662
Assign SAMPLER_SET[2]: 1921  LLC: 2048
SAMPLER_SET[2]: 1921
Assign SAMPLER_SET[3]: 1131  LLC: 2048
SAMPLER_SET[3]: 1131
Assign SAMPLER_SET[4]: 331  LLC: 2048
SAMPLER_SET[4]: 331
Assign SAMPLER_SET[5]: 1531  LLC: 2048
SAMPLER_SET[5]: 1531
Assign SAMPLER_SET[6]: 482  LLC: 2048
SAMPLER_SET[6]: 482
Assign SAMPLER_SET[7]: 1275  LLC: 2048
SAMPLER_SET[7]: 1275
Assign SAMPLER_SET[8]: 1876  LLC: 2048
SAMPLER_SET[8]: 1876
Assign SAMPLER_SET[9]: 2038  LLC: 2048
SAMPLER_SET[9]: 2038
Assign SAMPLER_SET[10]: 701  LLC: 2048
SAMPLER_SET[10]: 701
Assign SAMPLER_SET[11]: 479  LLC: 2048
SAMPLER_SET[11]: 479
Assign SAMPLER_SET[12]: 892  LLC: 2048
SAMPLER_SET[12]: 892
Assign SAMPLER_SET[13]: 1820  LLC: 2048
SAMPLER_SET[13]: 1820
Assign SAMPLER_SET[14]: 1505  LLC: 2048
SAMPLER_SET[14]: 1505
Assign SAMPLER_SET[15]: 1159  LLC: 2048
SAMPLER_SET[15]: 1159
Assign SAMPLER_SET[16]: 513  LLC: 2048
SAMPLER_SET[16]: 513
Assign SAMPLER_SET[17]: 703  LLC: 2048
SAMPLER_SET[17]: 703
Assign SAMPLER_SET[18]: 561  LLC: 2048
SAMPLER_SET[18]: 561
Assign SAMPLER_SET[19]: 990  LLC: 2048
SAMPLER_SET[19]: 990
Assign SAMPLER_SET[20]: 342  LLC: 2048
SAMPLER_SET[20]: 342
Assign SAMPLER_SET[21]: 882  LLC: 2048
SAMPLER_SET[21]: 882
Assign SAMPLER_SET[22]: 15  LLC: 2048
SAMPLER_SET[22]: 15
Assign SAMPLER_SET[23]: 71  LLC: 2048
SAMPLER_SET[23]: 71
Assign SAMPLER_SET[24]: 1127  LLC: 2048
SAMPLER_SET[24]: 1127
Assign SAMPLER_SET[25]: 1382  LLC: 2048
SAMPLER_SET[25]: 1382
Assign SAMPLER_SET[26]: 647  LLC: 2048
SAMPLER_SET[26]: 647
Assign SAMPLER_SET[27]: 857  LLC: 2048
SAMPLER_SET[27]: 857
Assign SAMPLER_SET[28]: 1450  LLC: 2048
SAMPLER_SET[28]: 1450
Assign SAMPLER_SET[29]: 1160  LLC: 2048
SAMPLER_SET[29]: 1160
Assign SAMPLER_SET[30]: 1852  LLC: 2048
SAMPLER_SET[30]: 1852
Assign SAMPLER_SET[31]: 1881  LLC: 2048
SAMPLER_SET[31]: 1881
Assign SAMPLER_SET[32]: 1770  LLC: 2048
SAMPLER_SET[32]: 1770
Assign SAMPLER_SET[33]: 1622  LLC: 2048
SAMPLER_SET[33]: 1622
Assign SAMPLER_SET[34]: 275  LLC: 2048
SAMPLER_SET[34]: 275
Assign SAMPLER_SET[35]: 635  LLC: 2048
SAMPLER_SET[35]: 635
Assign SAMPLER_SET[36]: 466  LLC: 2048
SAMPLER_SET[36]: 466
Assign SAMPLER_SET[37]: 1413  LLC: 2048
SAMPLER_SET[37]: 1413
Assign SAMPLER_SET[38]: 417  LLC: 2048
SAMPLER_SET[38]: 417
Assign SAMPLER_SET[39]: 472  LLC: 2048
SAMPLER_SET[39]: 472
Assign SAMPLER_SET[40]: 1340  LLC: 2048
SAMPLER_SET[40]: 1340
Assign SAMPLER_SET[41]: 852  LLC: 2048
SAMPLER_SET[41]: 852
Assign SAMPLER_SET[42]: 1365  LLC: 2048
SAMPLER_SET[42]: 1365
Assign SAMPLER_SET[43]: 47  LLC: 2048
SAMPLER_SET[43]: 47
Assign SAMPLER_SET[44]: 823  LLC: 2048
SAMPLER_SET[44]: 823
Assign SAMPLER_SET[45]: 686  LLC: 2048
SAMPLER_SET[45]: 686
Assign SAMPLER_SET[46]: 1637  LLC: 2048
SAMPLER_SET[46]: 1637
Assign SAMPLER_SET[47]: 1115  LLC: 2048
SAMPLER_SET[47]: 1115
Assign SAMPLER_SET[48]: 986  LLC: 2048
SAMPLER_SET[48]: 986
Assign SAMPLER_SET[49]: 258  LLC: 2048
SAMPLER_SET[49]: 258
Assign SAMPLER_SET[50]: 633  LLC: 2048
SAMPLER_SET[50]: 633
Assign SAMPLER_SET[51]: 920  LLC: 2048
SAMPLER_SET[51]: 920
Assign SAMPLER_SET[52]: 204  LLC: 2048
SAMPLER_SET[52]: 204
Assign SAMPLER_SET[53]: 227  LLC: 2048
SAMPLER_SET[53]: 227
Assign SAMPLER_SET[54]: 1818  LLC: 2048
SAMPLER_SET[54]: 1818
Assign SAMPLER_SET[55]: 886  LLC: 2048
SAMPLER_SET[55]: 886
Assign SAMPLER_SET[56]: 1422  LLC: 2048
SAMPLER_SET[56]: 1422
Assign SAMPLER_SET[57]: 607  LLC: 2048
SAMPLER_SET[57]: 607
Assign SAMPLER_SET[58]: 217  LLC: 2048
SAMPLER_SET[58]: 217
Assign SAMPLER_SET[59]: 1945  LLC: 2048
SAMPLER_SET[59]: 1945
Assign SAMPLER_SET[60]: 143  LLC: 2048
SAMPLER_SET[60]: 143
Assign SAMPLER_SET[61]: 1311  LLC: 2048
SAMPLER_SET[61]: 1311
Assign SAMPLER_SET[62]: 319  LLC: 2048
SAMPLER_SET[62]: 319
Assign SAMPLER_SET[63]: 1846  LLC: 2048
SAMPLER_SET[63]: 1846
Heartbeat CPU 0 instructions: 10000000 cycles: 3498555 heartbeat IPC: 2.85832 cumulative IPC: 2.85832 (Simulation time: 0 hr 0 min 20 sec) 
Heartbeat CPU 0 instructions: 20000002 cycles: 6994094 heartbeat IPC: 2.86079 cumulative IPC: 2.85956 (Simulation time: 0 hr 0 min 39 sec) 
Heartbeat CPU 0 instructions: 30000002 cycles: 10499929 heartbeat IPC: 2.85239 cumulative IPC: 2.85716 (Simulation time: 0 hr 0 min 58 sec) 
Heartbeat CPU 0 instructions: 40000001 cycles: 13992552 heartbeat IPC: 2.86318 cumulative IPC: 2.85866 (Simulation time: 0 hr 1 min 17 sec) 
Heartbeat CPU 0 instructions: 50000002 cycles: 17429084 heartbeat IPC: 2.90991 cumulative IPC: 2.86877 (Simulation time: 0 hr 1 min 35 sec) 
Heartbeat CPU 0 instructions: 60000003 cycles: 20903575 heartbeat IPC: 2.87812 cumulative IPC: 2.87032 (Simulation time: 0 hr 1 min 54 sec) 
Heartbeat CPU 0 instructions: 70000001 cycles: 24317177 heartbeat IPC: 2.92946 cumulative IPC: 2.87862 (Simulation time: 0 hr 2 min 13 sec) 
Heartbeat CPU 0 instructions: 80000002 cycles: 27746031 heartbeat IPC: 2.91643 cumulative IPC: 2.8833 (Simulation time: 0 hr 2 min 31 sec) 
Heartbeat CPU 0 instructions: 90000001 cycles: 31187359 heartbeat IPC: 2.90585 cumulative IPC: 2.88578 (Simulation time: 0 hr 2 min 49 sec) 
Heartbeat CPU 0 instructions: 100000000 cycles: 34636460 heartbeat IPC: 2.89931 cumulative IPC: 2.88713 (Simulation time: 0 hr 3 min 8 sec) 

Warmup complete CPU 0 instructions: 100000004 cycles: 34636461 (Simulation time: 0 hr 3 min 8 sec) 

Heartbeat CPU 0 instructions: 110000000 cycles: 48776374 heartbeat IPC: 0.707218 cumulative IPC: 0.707218 (Simulation time: 0 hr 3 min 29 sec) 
Heartbeat CPU 0 instructions: 120000001 cycles: 62072063 heartbeat IPC: 0.752124 cumulative IPC: 0.72898 (Simulation time: 0 hr 3 min 49 sec) 
Heartbeat CPU 0 instructions: 130000000 cycles: 77084041 heartbeat IPC: 0.666135 cumulative IPC: 0.706754 (Simulation time: 0 hr 4 min 10 sec) 
Heartbeat CPU 0 instructions: 140000003 cycles: 91354354 heartbeat IPC: 0.700756 cumulative IPC: 0.705245 (Simulation time: 0 hr 4 min 30 sec) 
Heartbeat CPU 0 instructions: 150000002 cycles: 106670155 heartbeat IPC: 0.65292 cumulative IPC: 0.69412 (Simulation time: 0 hr 4 min 52 sec) 
Heartbeat CPU 0 instructions: 160000001 cycles: 122069991 heartbeat IPC: 0.649357 cumulative IPC: 0.686236 (Simulation time: 0 hr 5 min 13 sec) 
Heartbeat CPU 0 instructions: 170000000 cycles: 137626466 heartbeat IPC: 0.642819 cumulative IPC: 0.679678 (Simulation time: 0 hr 5 min 35 sec) 
Heartbeat CPU 0 instructions: 180000001 cycles: 153026105 heartbeat IPC: 0.649366 cumulative IPC: 0.675735 (Simulation time: 0 hr 5 min 56 sec) 
Heartbeat CPU 0 instructions: 190000003 cycles: 168212513 heartbeat IPC: 0.658484 cumulative IPC: 0.673773 (Simulation time: 0 hr 6 min 17 sec) 
Heartbeat CPU 0 instructions: 200000000 cycles: 183115467 heartbeat IPC: 0.671008 cumulative IPC: 0.673496 (Simulation time: 0 hr 6 min 39 sec) 
Heartbeat CPU 0 instructions: 210000000 cycles: 198123343 heartbeat IPC: 0.666317 cumulative IPC: 0.672837 (Simulation time: 0 hr 7 min 0 sec) 
Heartbeat CPU 0 instructions: 220000000 cycles: 212070680 heartbeat IPC: 0.716983 cumulative IPC: 0.676307 (Simulation time: 0 hr 7 min 20 sec) 
Heartbeat CPU 0 instructions: 230000003 cycles: 225469048 heartbeat IPC: 0.74636 cumulative IPC: 0.681225 (Simulation time: 0 hr 7 min 40 sec) 
Heartbeat CPU 0 instructions: 240000003 cycles: 238602790 heartbeat IPC: 0.761398 cumulative IPC: 0.686388 (Simulation time: 0 hr 8 min 0 sec) 
Heartbeat CPU 0 instructions: 250000001 cycles: 251354173 heartbeat IPC: 0.784229 cumulative IPC: 0.692145 (Simulation time: 0 hr 8 min 20 sec) 
Heartbeat CPU 0 instructions: 260000003 cycles: 264619177 heartbeat IPC: 0.753863 cumulative IPC: 0.695704 (Simulation time: 0 hr 8 min 40 sec) 
Heartbeat CPU 0 instructions: 270000002 cycles: 278915346 heartbeat IPC: 0.699488 cumulative IPC: 0.695926 (Simulation time: 0 hr 9 min 0 sec) 
Heartbeat CPU 0 instructions: 280000000 cycles: 292849852 heartbeat IPC: 0.717643 cumulative IPC: 0.697098 (Simulation time: 0 hr 9 min 21 sec) 
Heartbeat CPU 0 instructions: 290000000 cycles: 306898138 heartbeat IPC: 0.711831 cumulative IPC: 0.697858 (Simulation time: 0 hr 9 min 41 sec) 
Heartbeat CPU 0 instructions: 300000001 cycles: 320795235 heartbeat IPC: 0.719575 cumulative IPC: 0.698913 (Simulation time: 0 hr 10 min 1 sec) 
Heartbeat CPU 0 instructions: 310000001 cycles: 335535316 heartbeat IPC: 0.678422 cumulative IPC: 0.697909 (Simulation time: 0 hr 10 min 22 sec) 
Heartbeat CPU 0 instructions: 320000000 cycles: 349574567 heartbeat IPC: 0.712289 cumulative IPC: 0.69855 (Simulation time: 0 hr 10 min 43 sec) 
Heartbeat CPU 0 instructions: 330000000 cycles: 364277564 heartbeat IPC: 0.680133 cumulative IPC: 0.697729 (Simulation time: 0 hr 11 min 4 sec) 
Heartbeat CPU 0 instructions: 340000000 cycles: 379303984 heartbeat IPC: 0.665495 cumulative IPC: 0.696323 (Simulation time: 0 hr 11 min 25 sec) 
Heartbeat CPU 0 instructions: 350000003 cycles: 394432791 heartbeat IPC: 0.660991 cumulative IPC: 0.694838 (Simulation time: 0 hr 11 min 46 sec) 
Heartbeat CPU 0 instructions: 360000001 cycles: 409773481 heartbeat IPC: 0.651861 cumulative IPC: 0.69308 (Simulation time: 0 hr 12 min 7 sec) 
Heartbeat CPU 0 instructions: 370000001 cycles: 425213964 heartbeat IPC: 0.647648 cumulative IPC: 0.691284 (Simulation time: 0 hr 12 min 28 sec) 
Heartbeat CPU 0 instructions: 380000003 cycles: 440816357 heartbeat IPC: 0.640927 cumulative IPC: 0.68935 (Simulation time: 0 hr 12 min 50 sec) 
Heartbeat CPU 0 instructions: 390000000 cycles: 457219995 heartbeat IPC: 0.609621 cumulative IPC: 0.686255 (Simulation time: 0 hr 13 min 12 sec) 
Heartbeat CPU 0 instructions: 400000000 cycles: 472867760 heartbeat IPC: 0.639069 cumulative IPC: 0.68457 (Simulation time: 0 hr 13 min 33 sec) 
Heartbeat CPU 0 instructions: 410000001 cycles: 488426295 heartbeat IPC: 0.642734 cumulative IPC: 0.683136 (Simulation time: 0 hr 13 min 55 sec) 
Heartbeat CPU 0 instructions: 420000000 cycles: 503415433 heartbeat IPC: 0.66715 cumulative IPC: 0.682624 (Simulation time: 0 hr 14 min 16 sec) 
Heartbeat CPU 0 instructions: 430000002 cycles: 519183270 heartbeat IPC: 0.634203 cumulative IPC: 0.681049 (Simulation time: 0 hr 14 min 37 sec) 
Heartbeat CPU 0 instructions: 440000000 cycles: 535589997 heartbeat IPC: 0.609506 cumulative IPC: 0.678706 (Simulation time: 0 hr 14 min 59 sec) 
Heartbeat CPU 0 instructions: 450000000 cycles: 551368705 heartbeat IPC: 0.633765 cumulative IPC: 0.677333 (Simulation time: 0 hr 15 min 21 sec) 
Heartbeat CPU 0 instructions: 460000000 cycles: 567315103 heartbeat IPC: 0.627101 cumulative IPC: 0.67583 (Simulation time: 0 hr 15 min 42 sec) 
Heartbeat CPU 0 instructions: 470000002 cycles: 583853429 heartbeat IPC: 0.604656 cumulative IPC: 0.673686 (Simulation time: 0 hr 16 min 4 sec) 
Heartbeat CPU 0 instructions: 480000000 cycles: 599614925 heartbeat IPC: 0.634457 cumulative IPC: 0.672592 (Simulation time: 0 hr 16 min 26 sec) 
Heartbeat CPU 0 instructions: 490000001 cycles: 615548221 heartbeat IPC: 0.627617 cumulative IPC: 0.671358 (Simulation time: 0 hr 16 min 48 sec) 
Heartbeat CPU 0 instructions: 500000003 cycles: 631757916 heartbeat IPC: 0.616915 cumulative IPC: 0.66988 (Simulation time: 0 hr 17 min 10 sec) 
Heartbeat CPU 0 instructions: 510000003 cycles: 647659442 heartbeat IPC: 0.62887 cumulative IPC: 0.668817 (Simulation time: 0 hr 17 min 31 sec) 
Heartbeat CPU 0 instructions: 520000001 cycles: 663520224 heartbeat IPC: 0.630486 cumulative IPC: 0.66785 (Simulation time: 0 hr 17 min 53 sec) 
Heartbeat CPU 0 instructions: 530000003 cycles: 679948898 heartbeat IPC: 0.608692 cumulative IPC: 0.666344 (Simulation time: 0 hr 18 min 15 sec) 
Heartbeat CPU 0 instructions: 540000002 cycles: 695844272 heartbeat IPC: 0.629114 cumulative IPC: 0.665449 (Simulation time: 0 hr 18 min 37 sec) 
Heartbeat CPU 0 instructions: 550000000 cycles: 711830199 heartbeat IPC: 0.62555 cumulative IPC: 0.664507 (Simulation time: 0 hr 18 min 58 sec) 
Heartbeat CPU 0 instructions: 560000001 cycles: 728184260 heartbeat IPC: 0.611469 cumulative IPC: 0.663256 (Simulation time: 0 hr 19 min 20 sec) 
Heartbeat CPU 0 instructions: 570000003 cycles: 743939873 heartbeat IPC: 0.634695 cumulative IPC: 0.662622 (Simulation time: 0 hr 19 min 42 sec) 
Heartbeat CPU 0 instructions: 580000000 cycles: 759934253 heartbeat IPC: 0.625219 cumulative IPC: 0.661797 (Simulation time: 0 hr 20 min 3 sec) 
Heartbeat CPU 0 instructions: 590000002 cycles: 776864439 heartbeat IPC: 0.590661 cumulative IPC: 0.660174 (Simulation time: 0 hr 20 min 25 sec) 
Heartbeat CPU 0 instructions: 600000000 cycles: 792405320 heartbeat IPC: 0.643464 cumulative IPC: 0.659832 (Simulation time: 0 hr 20 min 47 sec) 
Heartbeat CPU 0 instructions: 610000000 cycles: 807661269 heartbeat IPC: 0.655482 cumulative IPC: 0.659746 (Simulation time: 0 hr 21 min 8 sec) 
Heartbeat CPU 0 instructions: 620000003 cycles: 824127725 heartbeat IPC: 0.607295 cumulative IPC: 0.658652 (Simulation time: 0 hr 21 min 30 sec) 
Heartbeat CPU 0 instructions: 630000002 cycles: 839924955 heartbeat IPC: 0.633022 cumulative IPC: 0.658149 (Simulation time: 0 hr 21 min 52 sec) 
Heartbeat CPU 0 instructions: 640000000 cycles: 855874808 heartbeat IPC: 0.626965 cumulative IPC: 0.657544 (Simulation time: 0 hr 22 min 14 sec) 
Heartbeat CPU 0 instructions: 650000000 cycles: 872188583 heartbeat IPC: 0.612979 cumulative IPC: 0.656676 (Simulation time: 0 hr 22 min 36 sec) 
Heartbeat CPU 0 instructions: 660000000 cycles: 887982515 heartbeat IPC: 0.633155 cumulative IPC: 0.65624 (Simulation time: 0 hr 22 min 58 sec) 
Heartbeat CPU 0 instructions: 670000003 cycles: 904080931 heartbeat IPC: 0.621179 cumulative IPC: 0.655591 (Simulation time: 0 hr 23 min 20 sec) 
Heartbeat CPU 0 instructions: 680000003 cycles: 920694960 heartbeat IPC: 0.601901 cumulative IPC: 0.654584 (Simulation time: 0 hr 23 min 42 sec) 
Heartbeat CPU 0 instructions: 690000000 cycles: 935984676 heartbeat IPC: 0.654034 cumulative IPC: 0.654575 (Simulation time: 0 hr 24 min 4 sec) 
Heartbeat CPU 0 instructions: 700000001 cycles: 951807581 heartbeat IPC: 0.631995 cumulative IPC: 0.654185 (Simulation time: 0 hr 24 min 26 sec) 
Heartbeat CPU 0 instructions: 710000000 cycles: 967233351 heartbeat IPC: 0.648266 cumulative IPC: 0.654088 (Simulation time: 0 hr 24 min 47 sec) 
Heartbeat CPU 0 instructions: 720000000 cycles: 983610927 heartbeat IPC: 0.610591 cumulative IPC: 0.653337 (Simulation time: 0 hr 25 min 9 sec) 
Heartbeat CPU 0 instructions: 730000001 cycles: 998911787 heartbeat IPC: 0.653558 cumulative IPC: 0.65334 (Simulation time: 0 hr 25 min 31 sec) 
Heartbeat CPU 0 instructions: 740000000 cycles: 1014302594 heartbeat IPC: 0.649738 cumulative IPC: 0.653284 (Simulation time: 0 hr 25 min 52 sec) 
Heartbeat CPU 0 instructions: 750000000 cycles: 1029824284 heartbeat IPC: 0.64426 cumulative IPC: 0.653143 (Simulation time: 0 hr 26 min 14 sec) 
Heartbeat CPU 0 instructions: 760000003 cycles: 1045195597 heartbeat IPC: 0.650563 cumulative IPC: 0.653104 (Simulation time: 0 hr 26 min 35 sec) 
Heartbeat CPU 0 instructions: 770000000 cycles: 1059650764 heartbeat IPC: 0.691794 cumulative IPC: 0.653649 (Simulation time: 0 hr 26 min 56 sec) 
Heartbeat CPU 0 instructions: 780000000 cycles: 1074805009 heartbeat IPC: 0.659881 cumulative IPC: 0.65374 (Simulation time: 0 hr 27 min 17 sec) 
Heartbeat CPU 0 instructions: 790000002 cycles: 1089911058 heartbeat IPC: 0.661987 cumulative IPC: 0.653858 (Simulation time: 0 hr 27 min 38 sec) 
Heartbeat CPU 0 instructions: 800000002 cycles: 1105000596 heartbeat IPC: 0.662711 cumulative IPC: 0.653983 (Simulation time: 0 hr 27 min 59 sec) 
Heartbeat CPU 0 instructions: 810000001 cycles: 1119844504 heartbeat IPC: 0.673677 cumulative IPC: 0.654252 (Simulation time: 0 hr 28 min 20 sec) 
Heartbeat CPU 0 instructions: 820000001 cycles: 1134402760 heartbeat IPC: 0.686895 cumulative IPC: 0.654685 (Simulation time: 0 hr 28 min 42 sec) 
Heartbeat CPU 0 instructions: 830000003 cycles: 1149193822 heartbeat IPC: 0.676084 cumulative IPC: 0.654969 (Simulation time: 0 hr 29 min 4 sec) 
Heartbeat CPU 0 instructions: 840000002 cycles: 1163725969 heartbeat IPC: 0.688129 cumulative IPC: 0.655395 (Simulation time: 0 hr 29 min 27 sec) 
Heartbeat CPU 0 instructions: 850000002 cycles: 1177620277 heartbeat IPC: 0.719719 cumulative IPC: 0.656177 (Simulation time: 0 hr 29 min 50 sec) 
Heartbeat CPU 0 instructions: 860000003 cycles: 1192272092 heartbeat IPC: 0.682509 cumulative IPC: 0.656511 (Simulation time: 0 hr 30 min 12 sec) 
Heartbeat CPU 0 instructions: 870000003 cycles: 1206855383 heartbeat IPC: 0.685716 cumulative IPC: 0.656874 (Simulation time: 0 hr 30 min 35 sec) 
Heartbeat CPU 0 instructions: 880000000 cycles: 1220709094 heartbeat IPC: 0.721828 cumulative IPC: 0.657633 (Simulation time: 0 hr 30 min 57 sec) 
Heartbeat CPU 0 instructions: 890000000 cycles: 1234583795 heartbeat IPC: 0.720736 cumulative IPC: 0.658362 (Simulation time: 0 hr 31 min 19 sec) 
Heartbeat CPU 0 instructions: 900000003 cycles: 1249043267 heartbeat IPC: 0.691588 cumulative IPC: 0.658758 (Simulation time: 0 hr 31 min 42 sec) 
Heartbeat CPU 0 instructions: 910000003 cycles: 1263614026 heartbeat IPC: 0.686306 cumulative IPC: 0.659084 (Simulation time: 0 hr 32 min 5 sec) 
Heartbeat CPU 0 instructions: 920000000 cycles: 1278262382 heartbeat IPC: 0.68267 cumulative IPC: 0.659362 (Simulation time: 0 hr 32 min 28 sec) 
Heartbeat CPU 0 instructions: 930000001 cycles: 1292034427 heartbeat IPC: 0.726109 cumulative IPC: 0.660093 (Simulation time: 0 hr 32 min 50 sec) 
Heartbeat CPU 0 instructions: 940000002 cycles: 1306665196 heartbeat IPC: 0.683491 cumulative IPC: 0.660362 (Simulation time: 0 hr 33 min 13 sec) 
Heartbeat CPU 0 instructions: 950000002 cycles: 1321215068 heartbeat IPC: 0.687291 cumulative IPC: 0.660667 (Simulation time: 0 hr 33 min 34 sec) 
Heartbeat CPU 0 instructions: 960000003 cycles: 1335407072 heartbeat IPC: 0.704622 cumulative IPC: 0.661147 (Simulation time: 0 hr 33 min 56 sec) 
Heartbeat CPU 0 instructions: 970000001 cycles: 1349468854 heartbeat IPC: 0.711147 cumulative IPC: 0.661681 (Simulation time: 0 hr 34 min 17 sec) 
Heartbeat CPU 0 instructions: 980000003 cycles: 1363257849 heartbeat IPC: 0.725216 cumulative IPC: 0.662341 (Simulation time: 0 hr 34 min 38 sec) 
Heartbeat CPU 0 instructions: 990000000 cycles: 1377598404 heartbeat IPC: 0.697323 cumulative IPC: 0.662714 (Simulation time: 0 hr 35 min 0 sec) 
Heartbeat CPU 0 instructions: 1000000000 cycles: 1391611746 heartbeat IPC: 0.713606 cumulative IPC: 0.66324 (Simulation time: 0 hr 35 min 22 sec) 
Heartbeat CPU 0 instructions: 1010000002 cycles: 1406046556 heartbeat IPC: 0.69277 cumulative IPC: 0.663551 (Simulation time: 0 hr 35 min 44 sec) 
Heartbeat CPU 0 instructions: 1020000000 cycles: 1420718515 heartbeat IPC: 0.681572 cumulative IPC: 0.663741 (Simulation time: 0 hr 36 min 6 sec) 
Heartbeat CPU 0 instructions: 1030000001 cycles: 1434443897 heartbeat IPC: 0.728577 cumulative IPC: 0.664377 (Simulation time: 0 hr 36 min 28 sec) 
Heartbeat CPU 0 instructions: 1040000001 cycles: 1449054542 heartbeat IPC: 0.684433 cumulative IPC: 0.664584 (Simulation time: 0 hr 36 min 50 sec) 
Heartbeat CPU 0 instructions: 1050000000 cycles: 1463620740 heartbeat IPC: 0.686521 cumulative IPC: 0.664808 (Simulation time: 0 hr 37 min 12 sec) 
Heartbeat CPU 0 instructions: 1060000000 cycles: 1478103849 heartbeat IPC: 0.690459 cumulative IPC: 0.665065 (Simulation time: 0 hr 37 min 34 sec) 
Heartbeat CPU 0 instructions: 1070000002 cycles: 1492295787 heartbeat IPC: 0.704626 cumulative IPC: 0.66545 (Simulation time: 0 hr 37 min 56 sec) 
Heartbeat CPU 0 instructions: 1080000001 cycles: 1506194020 heartbeat IPC: 0.719516 cumulative IPC: 0.665961 (Simulation time: 0 hr 38 min 17 sec) 
Heartbeat CPU 0 instructions: 1090000003 cycles: 1521245230 heartbeat IPC: 0.664399 cumulative IPC: 0.665945 (Simulation time: 0 hr 38 min 39 sec) 
Heartbeat CPU 0 instructions: 1100000000 cycles: 1535791687 heartbeat IPC: 0.687452 cumulative IPC: 0.666154 (Simulation time: 0 hr 39 min 2 sec) 
Finished CPU 0 instructions: 1000000001 cycles: 1501155230 cumulative IPC: 0.666154 (Simulation time: 0 hr 39 min 2 sec) 

ChampSim completed all CPUs

Region of Interest Statistics

CPU 0 cumulative IPC: 0.666154 instructions: 1000000001 cycles: 1501155230
L1D TOTAL     ACCESS:  153900898  HIT:  138550773  MISS:   15350125
L1D LOAD      ACCESS:  136192553  HIT:  121407693  MISS:   14784860
L1D RFO       ACCESS:   17708345  HIT:   17143080  MISS:     565265
L1D PREFETCH  ACCESS:          0  HIT:          0  MISS:          0
L1D WRITEBACK ACCESS:          0  HIT:          0  MISS:          0
L1D PREFETCH  REQUESTED:          0  ISSUED:          0  USEFUL:          0  USELESS:          0
L1D AVERAGE MISS LATENCY: 122.898 cycles
L1I TOTAL     ACCESS:  210161520  HIT:  210160842  MISS:        678
L1I LOAD      ACCESS:  210161520  HIT:  210160842  MISS:        678
L1I RFO       ACCESS:          0  HIT:          0  MISS:          0
L1I PREFETCH  ACCESS:          0  HIT:          0  MISS:          0
L1I WRITEBACK ACCESS:          0  HIT:          0  MISS:          0
L1I PREFETCH  REQUESTED:          0  ISSUED:          0  USEFUL:          0  USELESS:          0
L1I AVERAGE MISS LATENCY: 227.223 cycles
L2C TOTAL     ACCESS:   16335096  HIT:    3634090  MISS:   12701006
L2C LOAD      ACCESS:   14785471  HIT:    2540499  MISS:   12244972
L2C RFO       ACCESS:     565177  HIT:     111063  MISS:     454114
L2C PREFETCH  ACCESS:          0  HIT:          0  MISS:          0
L2C WRITEBACK ACCESS:     984448  HIT:     982528  MISS:       1920
L2C PREFETCH  REQUESTED:          0  ISSUED:          0  USEFUL:          0  USELESS:          0
L2C AVERAGE MISS LATENCY: 133.475 cycles
LLC TOTAL     ACCESS:   13506956  HIT:    4776598  MISS:    8730358
LLC LOAD      ACCESS:   12244963  HIT:    3827086  MISS:    8417877
LLC RFO       ACCESS:     454096  HIT:     298143  MISS:     155953
LLC PREFETCH  ACCESS:          0  HIT:          0  MISS:          0
LLC WRITEBACK ACCESS:     807897  HIT:     651369  MISS:     156528
LLC PREFETCH  REQUESTED:          0  ISSUED:          0  USEFUL:          0  USELESS:          0
LLC AVERAGE MISS LATENCY: 135.338 cycles
Major fault: 0 Minor fault: 4441
==============================
Perceptron RRIP Stats:
   Num Updates:          440551
   Num Primary Trains:   4214
   Num Secondary Trains: 4741
==============================
primary_perceptron #0: -2 -2 -2 2 -4 0 0 0 0 6 0 2 6 6 4 -28 
secondary_perceptron #0: -1 -7 -5 9 -7 -3 -1 -5 -1 5 3 1 11 9 7 -5 -3 1 1 -1 -41 


DRAM Statistics
 CHANNEL 0
 RQ ROW_BUFFER_HIT:    5927096  ROW_BUFFER_MISS:    2646719
 DBUS_CONGESTED:     319479
 WQ ROW_BUFFER_HIT:     155416  ROW_BUFFER_MISS:     109903  FULL:          0

 AVG_CONGESTED_CYCLE: 5

CPU 0 Branch Prediction Accuracy: 95.5612% MPKI: 4.19749 Average ROB Occupancy at Mispredict: 144.244

Branch types
NOT_BRANCH: 905436987 90.5437%
BRANCH_DIRECT_JUMP: 1644011 0.164401%
BRANCH_INDIRECT: 0 0%
BRANCH_CONDITIONAL: 88615621 8.86156%
BRANCH_DIRECT_CALL: 2151557 0.215156%
BRANCH_INDIRECT_CALL: 112 1.12e-05%
BRANCH_RETURN: 2151669 0.215167%
BRANCH_OTHER: 0 0%

