
*** ChampSim Multicore Out-of-Order Simulator ***

Warmup Instructions: 100000000
Simulation Instructions: 1000000000
Number of CPUs: 1
LLC sets: 2048
LLC ways: 16
Off-chip DRAM Size: 4096 MB Channels: 1 Width: 64-bit Data Rate: 3200 MT/s

CPU 0 runs /scratch/user/kevin.weston/dpc3-traces/600.champsimtrace.xz
CPU 0 Bimodal branch predictor
Initialize DRRIP state
Assign rand_sets[0]: 454  LLC: 2048
rand_sets[0]: 454
Assign rand_sets[1]: 1662  LLC: 2048
rand_sets[1]: 1662
Assign rand_sets[2]: 1921  LLC: 2048
rand_sets[2]: 1921
Assign rand_sets[3]: 1131  LLC: 2048
rand_sets[3]: 1131
Assign rand_sets[4]: 331  LLC: 2048
rand_sets[4]: 331
Assign rand_sets[5]: 1531  LLC: 2048
rand_sets[5]: 1531
Assign rand_sets[6]: 482  LLC: 2048
rand_sets[6]: 482
Assign rand_sets[7]: 1275  LLC: 2048
rand_sets[7]: 1275
Assign rand_sets[8]: 1876  LLC: 2048
rand_sets[8]: 1876
Assign rand_sets[9]: 2038  LLC: 2048
rand_sets[9]: 2038
Assign rand_sets[10]: 701  LLC: 2048
rand_sets[10]: 701
Assign rand_sets[11]: 479  LLC: 2048
rand_sets[11]: 479
Assign rand_sets[12]: 892  LLC: 2048
rand_sets[12]: 892
Assign rand_sets[13]: 1820  LLC: 2048
rand_sets[13]: 1820
Assign rand_sets[14]: 1505  LLC: 2048
rand_sets[14]: 1505
Assign rand_sets[15]: 1159  LLC: 2048
rand_sets[15]: 1159
Assign rand_sets[16]: 513  LLC: 2048
rand_sets[16]: 513
Assign rand_sets[17]: 703  LLC: 2048
rand_sets[17]: 703
Assign rand_sets[18]: 561  LLC: 2048
rand_sets[18]: 561
Assign rand_sets[19]: 990  LLC: 2048
rand_sets[19]: 990
Assign rand_sets[20]: 342  LLC: 2048
rand_sets[20]: 342
Assign rand_sets[21]: 882  LLC: 2048
rand_sets[21]: 882
Assign rand_sets[22]: 15  LLC: 2048
rand_sets[22]: 15
Assign rand_sets[23]: 71  LLC: 2048
rand_sets[23]: 71
Assign rand_sets[24]: 1127  LLC: 2048
rand_sets[24]: 1127
Assign rand_sets[25]: 1382  LLC: 2048
rand_sets[25]: 1382
Assign rand_sets[26]: 647  LLC: 2048
rand_sets[26]: 647
Assign rand_sets[27]: 857  LLC: 2048
rand_sets[27]: 857
Assign rand_sets[28]: 1450  LLC: 2048
rand_sets[28]: 1450
Assign rand_sets[29]: 1160  LLC: 2048
rand_sets[29]: 1160
Assign rand_sets[30]: 1852  LLC: 2048
rand_sets[30]: 1852
Assign rand_sets[31]: 1881  LLC: 2048
rand_sets[31]: 1881
Assign rand_sets[32]: 1770  LLC: 2048
rand_sets[32]: 1770
Assign rand_sets[33]: 1622  LLC: 2048
rand_sets[33]: 1622
Assign rand_sets[34]: 275  LLC: 2048
rand_sets[34]: 275
Assign rand_sets[35]: 635  LLC: 2048
rand_sets[35]: 635
Assign rand_sets[36]: 466  LLC: 2048
rand_sets[36]: 466
Assign rand_sets[37]: 1413  LLC: 2048
rand_sets[37]: 1413
Assign rand_sets[38]: 417  LLC: 2048
rand_sets[38]: 417
Assign rand_sets[39]: 472  LLC: 2048
rand_sets[39]: 472
Assign rand_sets[40]: 1340  LLC: 2048
rand_sets[40]: 1340
Assign rand_sets[41]: 852  LLC: 2048
rand_sets[41]: 852
Assign rand_sets[42]: 1365  LLC: 2048
rand_sets[42]: 1365
Assign rand_sets[43]: 47  LLC: 2048
rand_sets[43]: 47
Assign rand_sets[44]: 823  LLC: 2048
rand_sets[44]: 823
Assign rand_sets[45]: 686  LLC: 2048
rand_sets[45]: 686
Assign rand_sets[46]: 1637  LLC: 2048
rand_sets[46]: 1637
Assign rand_sets[47]: 1115  LLC: 2048
rand_sets[47]: 1115
Assign rand_sets[48]: 986  LLC: 2048
rand_sets[48]: 986
Assign rand_sets[49]: 258  LLC: 2048
rand_sets[49]: 258
Assign rand_sets[50]: 633  LLC: 2048
rand_sets[50]: 633
Assign rand_sets[51]: 920  LLC: 2048
rand_sets[51]: 920
Assign rand_sets[52]: 204  LLC: 2048
rand_sets[52]: 204
Assign rand_sets[53]: 227  LLC: 2048
rand_sets[53]: 227
Assign rand_sets[54]: 1818  LLC: 2048
rand_sets[54]: 1818
Assign rand_sets[55]: 886  LLC: 2048
rand_sets[55]: 886
Assign rand_sets[56]: 1422  LLC: 2048
rand_sets[56]: 1422
Assign rand_sets[57]: 607  LLC: 2048
rand_sets[57]: 607
Assign rand_sets[58]: 217  LLC: 2048
rand_sets[58]: 217
Assign rand_sets[59]: 1945  LLC: 2048
rand_sets[59]: 1945
Assign rand_sets[60]: 143  LLC: 2048
rand_sets[60]: 143
Assign rand_sets[61]: 1311  LLC: 2048
rand_sets[61]: 1311
Assign rand_sets[62]: 319  LLC: 2048
rand_sets[62]: 319
Assign rand_sets[63]: 1846  LLC: 2048
rand_sets[63]: 1846
Heartbeat CPU 0 instructions: 10000000 cycles: 3913880 heartbeat IPC: 2.55501 cumulative IPC: 2.55501 (Simulation time: 0 hr 0 min 23 sec) 
Heartbeat CPU 0 instructions: 20000000 cycles: 7798820 heartbeat IPC: 2.57404 cumulative IPC: 2.56449 (Simulation time: 0 hr 0 min 48 sec) 
Heartbeat CPU 0 instructions: 30000002 cycles: 11687098 heartbeat IPC: 2.57183 cumulative IPC: 2.56693 (Simulation time: 0 hr 1 min 12 sec) 
Heartbeat CPU 0 instructions: 40000000 cycles: 15534060 heartbeat IPC: 2.59945 cumulative IPC: 2.57499 (Simulation time: 0 hr 1 min 36 sec) 
Heartbeat CPU 0 instructions: 50000003 cycles: 19429668 heartbeat IPC: 2.56699 cumulative IPC: 2.57338 (Simulation time: 0 hr 2 min 0 sec) 
Heartbeat CPU 0 instructions: 60000003 cycles: 23343362 heartbeat IPC: 2.55513 cumulative IPC: 2.57032 (Simulation time: 0 hr 2 min 25 sec) 
Heartbeat CPU 0 instructions: 70000003 cycles: 26923794 heartbeat IPC: 2.79296 cumulative IPC: 2.59993 (Simulation time: 0 hr 2 min 49 sec) 
Heartbeat CPU 0 instructions: 80000001 cycles: 30549858 heartbeat IPC: 2.75781 cumulative IPC: 2.61867 (Simulation time: 0 hr 3 min 14 sec) 
Heartbeat CPU 0 instructions: 90000000 cycles: 34402341 heartbeat IPC: 2.59573 cumulative IPC: 2.6161 (Simulation time: 0 hr 3 min 37 sec) 
Heartbeat CPU 0 instructions: 100000000 cycles: 38346567 heartbeat IPC: 2.53535 cumulative IPC: 2.6078 (Simulation time: 0 hr 4 min 2 sec) 

Warmup complete CPU 0 instructions: 100000004 cycles: 38346568 (Simulation time: 0 hr 4 min 2 sec) 

Heartbeat CPU 0 instructions: 110000000 cycles: 44833736 heartbeat IPC: 1.5415 cumulative IPC: 1.5415 (Simulation time: 0 hr 4 min 21 sec) 
Heartbeat CPU 0 instructions: 120000002 cycles: 51319355 heartbeat IPC: 1.54187 cumulative IPC: 1.54169 (Simulation time: 0 hr 4 min 41 sec) 
Heartbeat CPU 0 instructions: 130000000 cycles: 58733353 heartbeat IPC: 1.3488 cumulative IPC: 1.47154 (Simulation time: 0 hr 5 min 1 sec) 
Heartbeat CPU 0 instructions: 140000003 cycles: 66090810 heartbeat IPC: 1.35917 cumulative IPC: 1.44174 (Simulation time: 0 hr 5 min 21 sec) 
Heartbeat CPU 0 instructions: 150000000 cycles: 72785234 heartbeat IPC: 1.49378 cumulative IPC: 1.45186 (Simulation time: 0 hr 5 min 41 sec) 
Heartbeat CPU 0 instructions: 160000001 cycles: 79094713 heartbeat IPC: 1.58492 cumulative IPC: 1.47246 (Simulation time: 0 hr 6 min 0 sec) 
Heartbeat CPU 0 instructions: 170000002 cycles: 86181784 heartbeat IPC: 1.41102 cumulative IPC: 1.46336 (Simulation time: 0 hr 6 min 20 sec) 
Heartbeat CPU 0 instructions: 180000000 cycles: 92604963 heartbeat IPC: 1.55686 cumulative IPC: 1.47443 (Simulation time: 0 hr 6 min 39 sec) 
Heartbeat CPU 0 instructions: 190000003 cycles: 99011949 heartbeat IPC: 1.5608 cumulative IPC: 1.48355 (Simulation time: 0 hr 7 min 2 sec) 
Heartbeat CPU 0 instructions: 200000000 cycles: 106709546 heartbeat IPC: 1.29911 cumulative IPC: 1.46278 (Simulation time: 0 hr 7 min 23 sec) 
Heartbeat CPU 0 instructions: 210000001 cycles: 114164764 heartbeat IPC: 1.34134 cumulative IPC: 1.45084 (Simulation time: 0 hr 7 min 43 sec) 
Heartbeat CPU 0 instructions: 220000000 cycles: 121566494 heartbeat IPC: 1.35104 cumulative IPC: 1.44196 (Simulation time: 0 hr 8 min 3 sec) 
Heartbeat CPU 0 instructions: 230000000 cycles: 128949143 heartbeat IPC: 1.35453 cumulative IPC: 1.43484 (Simulation time: 0 hr 8 min 24 sec) 
Heartbeat CPU 0 instructions: 240000003 cycles: 136254547 heartbeat IPC: 1.36885 cumulative IPC: 1.42991 (Simulation time: 0 hr 8 min 45 sec) 
Heartbeat CPU 0 instructions: 250000002 cycles: 142364428 heartbeat IPC: 1.63669 cumulative IPC: 1.44206 (Simulation time: 0 hr 9 min 4 sec) 
Heartbeat CPU 0 instructions: 260000002 cycles: 149593877 heartbeat IPC: 1.38323 cumulative IPC: 1.43824 (Simulation time: 0 hr 9 min 24 sec) 
Heartbeat CPU 0 instructions: 270000001 cycles: 156487264 heartbeat IPC: 1.45067 cumulative IPC: 1.43896 (Simulation time: 0 hr 9 min 45 sec) 
Heartbeat CPU 0 instructions: 280000002 cycles: 163022972 heartbeat IPC: 1.53006 cumulative IPC: 1.44374 (Simulation time: 0 hr 10 min 6 sec) 
Heartbeat CPU 0 instructions: 290000001 cycles: 170317366 heartbeat IPC: 1.37092 cumulative IPC: 1.43971 (Simulation time: 0 hr 10 min 26 sec) 
Heartbeat CPU 0 instructions: 300000000 cycles: 177917872 heartbeat IPC: 1.3157 cumulative IPC: 1.43296 (Simulation time: 0 hr 10 min 46 sec) 
Heartbeat CPU 0 instructions: 310000003 cycles: 185381173 heartbeat IPC: 1.33989 cumulative IPC: 1.42824 (Simulation time: 0 hr 11 min 6 sec) 
Heartbeat CPU 0 instructions: 320000001 cycles: 192436336 heartbeat IPC: 1.4174 cumulative IPC: 1.42774 (Simulation time: 0 hr 11 min 26 sec) 
Heartbeat CPU 0 instructions: 330000000 cycles: 198766913 heartbeat IPC: 1.57963 cumulative IPC: 1.43373 (Simulation time: 0 hr 11 min 45 sec) 
Heartbeat CPU 0 instructions: 340000002 cycles: 205328963 heartbeat IPC: 1.52391 cumulative IPC: 1.43728 (Simulation time: 0 hr 12 min 6 sec) 
Heartbeat CPU 0 instructions: 350000000 cycles: 211982274 heartbeat IPC: 1.50301 cumulative IPC: 1.4398 (Simulation time: 0 hr 12 min 26 sec) 
Heartbeat CPU 0 instructions: 360000001 cycles: 219338140 heartbeat IPC: 1.35946 cumulative IPC: 1.43653 (Simulation time: 0 hr 12 min 47 sec) 
Heartbeat CPU 0 instructions: 370000003 cycles: 226065718 heartbeat IPC: 1.48642 cumulative IPC: 1.43832 (Simulation time: 0 hr 13 min 7 sec) 
Heartbeat CPU 0 instructions: 380000003 cycles: 233092181 heartbeat IPC: 1.42319 cumulative IPC: 1.43777 (Simulation time: 0 hr 13 min 28 sec) 
Heartbeat CPU 0 instructions: 390000001 cycles: 240502006 heartbeat IPC: 1.34956 cumulative IPC: 1.43454 (Simulation time: 0 hr 13 min 48 sec) 
Heartbeat CPU 0 instructions: 400000001 cycles: 247858933 heartbeat IPC: 1.35926 cumulative IPC: 1.4319 (Simulation time: 0 hr 14 min 8 sec) 
Heartbeat CPU 0 instructions: 410000000 cycles: 254732245 heartbeat IPC: 1.4549 cumulative IPC: 1.43263 (Simulation time: 0 hr 14 min 28 sec) 
Heartbeat CPU 0 instructions: 420000001 cycles: 261541800 heartbeat IPC: 1.46852 cumulative IPC: 1.43372 (Simulation time: 0 hr 14 min 48 sec) 
Heartbeat CPU 0 instructions: 430000000 cycles: 267830860 heartbeat IPC: 1.59006 cumulative IPC: 1.43801 (Simulation time: 0 hr 15 min 9 sec) 
Heartbeat CPU 0 instructions: 440000000 cycles: 275055702 heartbeat IPC: 1.38411 cumulative IPC: 1.43636 (Simulation time: 0 hr 15 min 30 sec) 
Heartbeat CPU 0 instructions: 450000000 cycles: 281337199 heartbeat IPC: 1.59198 cumulative IPC: 1.44038 (Simulation time: 0 hr 15 min 51 sec) 
Heartbeat CPU 0 instructions: 460000002 cycles: 288528748 heartbeat IPC: 1.39052 cumulative IPC: 1.43895 (Simulation time: 0 hr 16 min 11 sec) 
Heartbeat CPU 0 instructions: 470000003 cycles: 299141957 heartbeat IPC: 0.942222 cumulative IPC: 1.41874 (Simulation time: 0 hr 16 min 32 sec) 
Heartbeat CPU 0 instructions: 480000003 cycles: 309454139 heartbeat IPC: 0.969727 cumulative IPC: 1.40166 (Simulation time: 0 hr 16 min 52 sec) 
Heartbeat CPU 0 instructions: 490000002 cycles: 316561690 heartbeat IPC: 1.40695 cumulative IPC: 1.40179 (Simulation time: 0 hr 17 min 11 sec) 
Heartbeat CPU 0 instructions: 500000001 cycles: 324922194 heartbeat IPC: 1.1961 cumulative IPC: 1.39579 (Simulation time: 0 hr 17 min 30 sec) 
Heartbeat CPU 0 instructions: 510000002 cycles: 336025565 heartbeat IPC: 0.900627 cumulative IPC: 1.37732 (Simulation time: 0 hr 17 min 48 sec) 
Heartbeat CPU 0 instructions: 520000003 cycles: 352300742 heartbeat IPC: 0.614433 cumulative IPC: 1.33777 (Simulation time: 0 hr 18 min 9 sec) 
Heartbeat CPU 0 instructions: 530000003 cycles: 366817631 heartbeat IPC: 0.688853 cumulative IPC: 1.3091 (Simulation time: 0 hr 18 min 29 sec) 
Heartbeat CPU 0 instructions: 540000002 cycles: 380193380 heartbeat IPC: 0.747622 cumulative IPC: 1.28713 (Simulation time: 0 hr 18 min 49 sec) 
Heartbeat CPU 0 instructions: 550000000 cycles: 396640162 heartbeat IPC: 0.608022 cumulative IPC: 1.25595 (Simulation time: 0 hr 19 min 10 sec) 
Heartbeat CPU 0 instructions: 560000001 cycles: 404338609 heartbeat IPC: 1.29896 cumulative IPC: 1.25686 (Simulation time: 0 hr 19 min 31 sec) 
Heartbeat CPU 0 instructions: 570000000 cycles: 411763063 heartbeat IPC: 1.3469 cumulative IPC: 1.25865 (Simulation time: 0 hr 19 min 51 sec) 
Heartbeat CPU 0 instructions: 580000000 cycles: 419833079 heartbeat IPC: 1.23915 cumulative IPC: 1.25824 (Simulation time: 0 hr 20 min 12 sec) 
Heartbeat CPU 0 instructions: 590000000 cycles: 427832154 heartbeat IPC: 1.25014 cumulative IPC: 1.25807 (Simulation time: 0 hr 20 min 33 sec) 
Heartbeat CPU 0 instructions: 600000001 cycles: 440093268 heartbeat IPC: 0.815587 cumulative IPC: 1.24457 (Simulation time: 0 hr 20 min 54 sec) 
Heartbeat CPU 0 instructions: 610000001 cycles: 455491719 heartbeat IPC: 0.649416 cumulative IPC: 1.2226 (Simulation time: 0 hr 21 min 15 sec) 
Heartbeat CPU 0 instructions: 620000002 cycles: 471570786 heartbeat IPC: 0.621927 cumulative IPC: 1.2003 (Simulation time: 0 hr 21 min 36 sec) 
Heartbeat CPU 0 instructions: 630000003 cycles: 483471282 heartbeat IPC: 0.840301 cumulative IPC: 1.19068 (Simulation time: 0 hr 21 min 57 sec) 
Heartbeat CPU 0 instructions: 640000000 cycles: 496300634 heartbeat IPC: 0.779462 cumulative IPC: 1.17916 (Simulation time: 0 hr 22 min 19 sec) 
Heartbeat CPU 0 instructions: 650000003 cycles: 512490706 heartbeat IPC: 0.617663 cumulative IPC: 1.15998 (Simulation time: 0 hr 22 min 41 sec) 
Heartbeat CPU 0 instructions: 660000000 cycles: 527677547 heartbeat IPC: 0.658465 cumulative IPC: 1.14442 (Simulation time: 0 hr 23 min 1 sec) 
Heartbeat CPU 0 instructions: 670000001 cycles: 537995364 heartbeat IPC: 0.969197 cumulative IPC: 1.1408 (Simulation time: 0 hr 23 min 22 sec) 
Heartbeat CPU 0 instructions: 680000000 cycles: 555337467 heartbeat IPC: 0.576631 cumulative IPC: 1.12188 (Simulation time: 0 hr 23 min 44 sec) 
Heartbeat CPU 0 instructions: 690000002 cycles: 571187424 heartbeat IPC: 0.630917 cumulative IPC: 1.10727 (Simulation time: 0 hr 24 min 4 sec) 
Heartbeat CPU 0 instructions: 700000001 cycles: 578320008 heartbeat IPC: 1.40202 cumulative IPC: 1.11117 (Simulation time: 0 hr 24 min 25 sec) 
Heartbeat CPU 0 instructions: 710000001 cycles: 584956925 heartbeat IPC: 1.50672 cumulative IPC: 1.11597 (Simulation time: 0 hr 24 min 46 sec) 
Heartbeat CPU 0 instructions: 720000001 cycles: 591550516 heartbeat IPC: 1.51662 cumulative IPC: 1.12074 (Simulation time: 0 hr 25 min 7 sec) 
Heartbeat CPU 0 instructions: 730000001 cycles: 597299688 heartbeat IPC: 1.73938 cumulative IPC: 1.12711 (Simulation time: 0 hr 25 min 30 sec) 
Heartbeat CPU 0 instructions: 740000000 cycles: 603421142 heartbeat IPC: 1.6336 cumulative IPC: 1.13259 (Simulation time: 0 hr 25 min 52 sec) 
Heartbeat CPU 0 instructions: 750000002 cycles: 610312333 heartbeat IPC: 1.45113 cumulative IPC: 1.13643 (Simulation time: 0 hr 26 min 13 sec) 
Heartbeat CPU 0 instructions: 760000000 cycles: 617395661 heartbeat IPC: 1.41177 cumulative IPC: 1.1398 (Simulation time: 0 hr 26 min 33 sec) 
Heartbeat CPU 0 instructions: 770000000 cycles: 624225768 heartbeat IPC: 1.46411 cumulative IPC: 1.14358 (Simulation time: 0 hr 26 min 54 sec) 
Heartbeat CPU 0 instructions: 780000003 cycles: 630684278 heartbeat IPC: 1.54835 cumulative IPC: 1.14799 (Simulation time: 0 hr 27 min 16 sec) 
Heartbeat CPU 0 instructions: 790000000 cycles: 637448518 heartbeat IPC: 1.47836 cumulative IPC: 1.15172 (Simulation time: 0 hr 27 min 37 sec) 
Heartbeat CPU 0 instructions: 800000001 cycles: 643905483 heartbeat IPC: 1.54872 cumulative IPC: 1.15596 (Simulation time: 0 hr 27 min 59 sec) 
Heartbeat CPU 0 instructions: 810000000 cycles: 650942562 heartbeat IPC: 1.42104 cumulative IPC: 1.159 (Simulation time: 0 hr 28 min 20 sec) 
Heartbeat CPU 0 instructions: 820000002 cycles: 656711836 heartbeat IPC: 1.73332 cumulative IPC: 1.16436 (Simulation time: 0 hr 28 min 38 sec) 
Heartbeat CPU 0 instructions: 830000002 cycles: 662343641 heartbeat IPC: 1.77563 cumulative IPC: 1.16988 (Simulation time: 0 hr 28 min 56 sec) 
Heartbeat CPU 0 instructions: 840000003 cycles: 669013544 heartbeat IPC: 1.49927 cumulative IPC: 1.17336 (Simulation time: 0 hr 29 min 16 sec) 
Heartbeat CPU 0 instructions: 850000000 cycles: 676181820 heartbeat IPC: 1.39504 cumulative IPC: 1.17585 (Simulation time: 0 hr 29 min 36 sec) 
Heartbeat CPU 0 instructions: 860000000 cycles: 682823087 heartbeat IPC: 1.50574 cumulative IPC: 1.17925 (Simulation time: 0 hr 29 min 56 sec) 
Heartbeat CPU 0 instructions: 870000001 cycles: 689503651 heartbeat IPC: 1.49688 cumulative IPC: 1.18251 (Simulation time: 0 hr 30 min 16 sec) 
Heartbeat CPU 0 instructions: 880000000 cycles: 696425633 heartbeat IPC: 1.44467 cumulative IPC: 1.18527 (Simulation time: 0 hr 30 min 37 sec) 
Heartbeat CPU 0 instructions: 890000001 cycles: 703475404 heartbeat IPC: 1.41849 cumulative IPC: 1.18774 (Simulation time: 0 hr 30 min 57 sec) 
Heartbeat CPU 0 instructions: 900000001 cycles: 710302791 heartbeat IPC: 1.46469 cumulative IPC: 1.19055 (Simulation time: 0 hr 31 min 18 sec) 
Heartbeat CPU 0 instructions: 910000001 cycles: 716250004 heartbeat IPC: 1.68146 cumulative IPC: 1.19486 (Simulation time: 0 hr 31 min 39 sec) 
Heartbeat CPU 0 instructions: 920000000 cycles: 722777620 heartbeat IPC: 1.53195 cumulative IPC: 1.19808 (Simulation time: 0 hr 31 min 59 sec) 
Heartbeat CPU 0 instructions: 930000003 cycles: 729181975 heartbeat IPC: 1.56144 cumulative IPC: 1.20144 (Simulation time: 0 hr 32 min 20 sec) 
Heartbeat CPU 0 instructions: 940000002 cycles: 735688321 heartbeat IPC: 1.53696 cumulative IPC: 1.20457 (Simulation time: 0 hr 32 min 42 sec) 
Heartbeat CPU 0 instructions: 950000002 cycles: 742647952 heartbeat IPC: 1.43686 cumulative IPC: 1.20687 (Simulation time: 0 hr 33 min 5 sec) 
Heartbeat CPU 0 instructions: 960000000 cycles: 749774170 heartbeat IPC: 1.40327 cumulative IPC: 1.20884 (Simulation time: 0 hr 33 min 25 sec) 
Heartbeat CPU 0 instructions: 970000000 cycles: 756909785 heartbeat IPC: 1.40142 cumulative IPC: 1.21075 (Simulation time: 0 hr 33 min 46 sec) 
Heartbeat CPU 0 instructions: 980000000 cycles: 763935829 heartbeat IPC: 1.42328 cumulative IPC: 1.21281 (Simulation time: 0 hr 34 min 6 sec) 
Heartbeat CPU 0 instructions: 990000000 cycles: 771107540 heartbeat IPC: 1.39437 cumulative IPC: 1.21458 (Simulation time: 0 hr 34 min 27 sec) 
Heartbeat CPU 0 instructions: 1000000000 cycles: 777939647 heartbeat IPC: 1.46368 cumulative IPC: 1.21689 (Simulation time: 0 hr 34 min 48 sec) 
Heartbeat CPU 0 instructions: 1010000000 cycles: 783908876 heartbeat IPC: 1.67526 cumulative IPC: 1.22056 (Simulation time: 0 hr 35 min 8 sec) 
Heartbeat CPU 0 instructions: 1020000003 cycles: 790845375 heartbeat IPC: 1.44165 cumulative IPC: 1.22259 (Simulation time: 0 hr 35 min 28 sec) 
Heartbeat CPU 0 instructions: 1030000000 cycles: 797284642 heartbeat IPC: 1.55297 cumulative IPC: 1.2254 (Simulation time: 0 hr 35 min 50 sec) 
Heartbeat CPU 0 instructions: 1040000000 cycles: 804000817 heartbeat IPC: 1.48894 cumulative IPC: 1.22771 (Simulation time: 0 hr 36 min 11 sec) 
Heartbeat CPU 0 instructions: 1050000000 cycles: 811051582 heartbeat IPC: 1.41829 cumulative IPC: 1.22945 (Simulation time: 0 hr 36 min 32 sec) 
Heartbeat CPU 0 instructions: 1060000001 cycles: 818343663 heartbeat IPC: 1.37135 cumulative IPC: 1.23077 (Simulation time: 0 hr 36 min 53 sec) 
Heartbeat CPU 0 instructions: 1070000000 cycles: 825565366 heartbeat IPC: 1.38471 cumulative IPC: 1.23219 (Simulation time: 0 hr 37 min 14 sec) 
Heartbeat CPU 0 instructions: 1080000000 cycles: 832101985 heartbeat IPC: 1.52984 cumulative IPC: 1.23464 (Simulation time: 0 hr 37 min 34 sec) 
Heartbeat CPU 0 instructions: 1090000001 cycles: 838842243 heartbeat IPC: 1.48362 cumulative IPC: 1.23673 (Simulation time: 0 hr 37 min 55 sec) 
Heartbeat CPU 0 instructions: 1100000000 cycles: 845022658 heartbeat IPC: 1.61801 cumulative IPC: 1.23965 (Simulation time: 0 hr 38 min 16 sec) 
Finished CPU 0 instructions: 1000000002 cycles: 806676101 cumulative IPC: 1.23965 (Simulation time: 0 hr 38 min 16 sec) 

ChampSim completed all CPUs

Region of Interest Statistics

CPU 0 cumulative IPC: 1.23965 instructions: 1000000002 cycles: 806676101
L1D TOTAL     ACCESS:  370662093  HIT:  369256550  MISS:    1405543
L1D LOAD      ACCESS:  163375860  HIT:  162082670  MISS:    1293190
L1D RFO       ACCESS:  207286233  HIT:  207173880  MISS:     112353
L1D PREFETCH  ACCESS:          0  HIT:          0  MISS:          0
L1D WRITEBACK ACCESS:          0  HIT:          0  MISS:          0
L1D PREFETCH  REQUESTED:          0  ISSUED:          0  USEFUL:          0  USELESS:          0
L1D AVERAGE MISS LATENCY: 61.1971 cycles
L1I TOTAL     ACCESS:  158616545  HIT:  156966789  MISS:    1649756
L1I LOAD      ACCESS:  158616545  HIT:  156966789  MISS:    1649756
L1I RFO       ACCESS:          0  HIT:          0  MISS:          0
L1I PREFETCH  ACCESS:          0  HIT:          0  MISS:          0
L1I WRITEBACK ACCESS:          0  HIT:          0  MISS:          0
L1I PREFETCH  REQUESTED:          0  ISSUED:          0  USEFUL:          0  USELESS:          0
L1I AVERAGE MISS LATENCY: 16.8126 cycles
L2C TOTAL     ACCESS:    3423765  HIT:    2762339  MISS:     661426
L2C LOAD      ACCESS:    2942819  HIT:    2324894  MISS:     617925
L2C RFO       ACCESS:     112347  HIT:      72568  MISS:      39779
L2C PREFETCH  ACCESS:          0  HIT:          0  MISS:          0
L2C WRITEBACK ACCESS:     368599  HIT:     364877  MISS:       3722
L2C PREFETCH  REQUESTED:          0  ISSUED:          0  USEFUL:          0  USELESS:          0
L2C AVERAGE MISS LATENCY: 115.761 cycles
LLC TOTAL     ACCESS:     790076  HIT:     474652  MISS:     315424
LLC LOAD      ACCESS:     617899  HIT:     324268  MISS:     293631
LLC RFO       ACCESS:      39777  HIT:      18701  MISS:      21076
LLC PREFETCH  ACCESS:          0  HIT:          0  MISS:          0
LLC WRITEBACK ACCESS:     132400  HIT:     131683  MISS:        717
LLC PREFETCH  REQUESTED:          0  ISSUED:          0  USEFUL:          0  USELESS:          0
LLC AVERAGE MISS LATENCY: 158.846 cycles
Major fault: 0 Minor fault: 6011

DRAM Statistics
 CHANNEL 0
 RQ ROW_BUFFER_HIT:      81714  ROW_BUFFER_MISS:     232993
 DBUS_CONGESTED:      23715
 WQ ROW_BUFFER_HIT:      21247  ROW_BUFFER_MISS:      40661  FULL:          0

 AVG_CONGESTED_CYCLE: 6

CPU 0 Branch Prediction Accuracy: 97.1732% MPKI: 4.19273 Average ROB Occupancy at Mispredict: 78.4126

Branch types
NOT_BRANCH: 851679750 85.168%
BRANCH_DIRECT_JUMP: 20351476 2.03515%
BRANCH_INDIRECT: 7090827 0.709083%
BRANCH_CONDITIONAL: 105247556 10.5248%
BRANCH_DIRECT_CALL: 7012686 0.701269%
BRANCH_INDIRECT_CALL: 802358 0.0802358%
BRANCH_RETURN: 7815043 0.781504%
BRANCH_OTHER: 0 0%

