
*** ChampSim Multicore Out-of-Order Simulator ***

Warmup Instructions: 100000000
Simulation Instructions: 1000000000
Number of CPUs: 1
LLC sets: 2048
LLC ways: 16
Off-chip DRAM Size: 4096 MB Channels: 1 Width: 64-bit Data Rate: 3200 MT/s

CPU 0 runs /scratch/user/kevin.weston/dpc3-traces/600.champsimtrace.xz
CPU 0 Bimodal branch predictor
Initialize SHIP state
Assign rand_sets[0]: 454  LLC: 2048
rand_sets[0]: 454
Assign rand_sets[1]: 1662  LLC: 2048
rand_sets[1]: 1662
Assign rand_sets[2]: 1921  LLC: 2048
rand_sets[2]: 1921
Assign rand_sets[3]: 1131  LLC: 2048
rand_sets[3]: 1131
Assign rand_sets[4]: 331  LLC: 2048
rand_sets[4]: 331
Assign rand_sets[5]: 1531  LLC: 2048
rand_sets[5]: 1531
Assign rand_sets[6]: 482  LLC: 2048
rand_sets[6]: 482
Assign rand_sets[7]: 1275  LLC: 2048
rand_sets[7]: 1275
Assign rand_sets[8]: 1876  LLC: 2048
rand_sets[8]: 1876
Assign rand_sets[9]: 2038  LLC: 2048
rand_sets[9]: 2038
Assign rand_sets[10]: 701  LLC: 2048
rand_sets[10]: 701
Assign rand_sets[11]: 479  LLC: 2048
rand_sets[11]: 479
Assign rand_sets[12]: 892  LLC: 2048
rand_sets[12]: 892
Assign rand_sets[13]: 1820  LLC: 2048
rand_sets[13]: 1820
Assign rand_sets[14]: 1505  LLC: 2048
rand_sets[14]: 1505
Assign rand_sets[15]: 1159  LLC: 2048
rand_sets[15]: 1159
Assign rand_sets[16]: 513  LLC: 2048
rand_sets[16]: 513
Assign rand_sets[17]: 703  LLC: 2048
rand_sets[17]: 703
Assign rand_sets[18]: 561  LLC: 2048
rand_sets[18]: 561
Assign rand_sets[19]: 990  LLC: 2048
rand_sets[19]: 990
Assign rand_sets[20]: 342  LLC: 2048
rand_sets[20]: 342
Assign rand_sets[21]: 882  LLC: 2048
rand_sets[21]: 882
Assign rand_sets[22]: 15  LLC: 2048
rand_sets[22]: 15
Assign rand_sets[23]: 71  LLC: 2048
rand_sets[23]: 71
Assign rand_sets[24]: 1127  LLC: 2048
rand_sets[24]: 1127
Assign rand_sets[25]: 1382  LLC: 2048
rand_sets[25]: 1382
Assign rand_sets[26]: 647  LLC: 2048
rand_sets[26]: 647
Assign rand_sets[27]: 857  LLC: 2048
rand_sets[27]: 857
Assign rand_sets[28]: 1450  LLC: 2048
rand_sets[28]: 1450
Assign rand_sets[29]: 1160  LLC: 2048
rand_sets[29]: 1160
Assign rand_sets[30]: 1852  LLC: 2048
rand_sets[30]: 1852
Assign rand_sets[31]: 1881  LLC: 2048
rand_sets[31]: 1881
Assign rand_sets[32]: 1770  LLC: 2048
rand_sets[32]: 1770
Assign rand_sets[33]: 1622  LLC: 2048
rand_sets[33]: 1622
Assign rand_sets[34]: 275  LLC: 2048
rand_sets[34]: 275
Assign rand_sets[35]: 635  LLC: 2048
rand_sets[35]: 635
Assign rand_sets[36]: 466  LLC: 2048
rand_sets[36]: 466
Assign rand_sets[37]: 1413  LLC: 2048
rand_sets[37]: 1413
Assign rand_sets[38]: 417  LLC: 2048
rand_sets[38]: 417
Assign rand_sets[39]: 472  LLC: 2048
rand_sets[39]: 472
Assign rand_sets[40]: 1340  LLC: 2048
rand_sets[40]: 1340
Assign rand_sets[41]: 852  LLC: 2048
rand_sets[41]: 852
Assign rand_sets[42]: 1365  LLC: 2048
rand_sets[42]: 1365
Assign rand_sets[43]: 47  LLC: 2048
rand_sets[43]: 47
Assign rand_sets[44]: 823  LLC: 2048
rand_sets[44]: 823
Assign rand_sets[45]: 686  LLC: 2048
rand_sets[45]: 686
Assign rand_sets[46]: 1637  LLC: 2048
rand_sets[46]: 1637
Assign rand_sets[47]: 1115  LLC: 2048
rand_sets[47]: 1115
Assign rand_sets[48]: 986  LLC: 2048
rand_sets[48]: 986
Assign rand_sets[49]: 258  LLC: 2048
rand_sets[49]: 258
Assign rand_sets[50]: 633  LLC: 2048
rand_sets[50]: 633
Assign rand_sets[51]: 920  LLC: 2048
rand_sets[51]: 920
Assign rand_sets[52]: 204  LLC: 2048
rand_sets[52]: 204
Assign rand_sets[53]: 227  LLC: 2048
rand_sets[53]: 227
Assign rand_sets[54]: 1818  LLC: 2048
rand_sets[54]: 1818
Assign rand_sets[55]: 886  LLC: 2048
rand_sets[55]: 886
Assign rand_sets[56]: 1422  LLC: 2048
rand_sets[56]: 1422
Assign rand_sets[57]: 607  LLC: 2048
rand_sets[57]: 607
Assign rand_sets[58]: 217  LLC: 2048
rand_sets[58]: 217
Assign rand_sets[59]: 1945  LLC: 2048
rand_sets[59]: 1945
Assign rand_sets[60]: 143  LLC: 2048
rand_sets[60]: 143
Assign rand_sets[61]: 1311  LLC: 2048
rand_sets[61]: 1311
Assign rand_sets[62]: 319  LLC: 2048
rand_sets[62]: 319
Assign rand_sets[63]: 1846  LLC: 2048
rand_sets[63]: 1846
Assign rand_sets[64]: 238  LLC: 2048
rand_sets[64]: 238
Assign rand_sets[65]: 67  LLC: 2048
rand_sets[65]: 67
Assign rand_sets[66]: 1912  LLC: 2048
rand_sets[66]: 1912
Assign rand_sets[67]: 1613  LLC: 2048
rand_sets[67]: 1613
Assign rand_sets[68]: 1293  LLC: 2048
rand_sets[68]: 1293
Assign rand_sets[69]: 1018  LLC: 2048
rand_sets[69]: 1018
Assign rand_sets[70]: 1982  LLC: 2048
rand_sets[70]: 1982
Assign rand_sets[71]: 1702  LLC: 2048
rand_sets[71]: 1702
Assign rand_sets[72]: 1498  LLC: 2048
rand_sets[72]: 1498
Assign rand_sets[73]: 228  LLC: 2048
rand_sets[73]: 228
Assign rand_sets[74]: 1414  LLC: 2048
rand_sets[74]: 1414
Assign rand_sets[75]: 1166  LLC: 2048
rand_sets[75]: 1166
Assign rand_sets[76]: 732  LLC: 2048
rand_sets[76]: 732
Assign rand_sets[77]: 297  LLC: 2048
rand_sets[77]: 297
Assign rand_sets[78]: 1133  LLC: 2048
rand_sets[78]: 1133
Assign rand_sets[79]: 846  LLC: 2048
rand_sets[79]: 846
Assign rand_sets[80]: 767  LLC: 2048
rand_sets[80]: 767
Assign rand_sets[81]: 1878  LLC: 2048
rand_sets[81]: 1878
Assign rand_sets[82]: 993  LLC: 2048
rand_sets[82]: 993
Assign rand_sets[83]: 1392  LLC: 2048
rand_sets[83]: 1392
Assign rand_sets[84]: 1568  LLC: 2048
rand_sets[84]: 1568
Assign rand_sets[85]: 1787  LLC: 2048
rand_sets[85]: 1787
Assign rand_sets[86]: 399  LLC: 2048
rand_sets[86]: 399
Assign rand_sets[87]: 1201  LLC: 2048
rand_sets[87]: 1201
Assign rand_sets[88]: 856  LLC: 2048
rand_sets[88]: 856
Assign rand_sets[89]: 773  LLC: 2048
rand_sets[89]: 773
Assign rand_sets[90]: 1680  LLC: 2048
rand_sets[90]: 1680
Assign rand_sets[91]: 1477  LLC: 2048
rand_sets[91]: 1477
Assign rand_sets[92]: 9  LLC: 2048
rand_sets[92]: 9
Assign rand_sets[93]: 1500  LLC: 2048
rand_sets[93]: 1500
Assign rand_sets[94]: 851  LLC: 2048
rand_sets[94]: 851
Assign rand_sets[95]: 973  LLC: 2048
rand_sets[95]: 973
Assign rand_sets[96]: 938  LLC: 2048
rand_sets[96]: 938
Assign rand_sets[97]: 1851  LLC: 2048
rand_sets[97]: 1851
Assign rand_sets[98]: 1608  LLC: 2048
rand_sets[98]: 1608
Assign rand_sets[99]: 1945  LLC: 2048
Assign rand_sets[99]: 1106  LLC: 2048
rand_sets[99]: 1106
Assign rand_sets[100]: 979  LLC: 2048
rand_sets[100]: 979
Assign rand_sets[101]: 338  LLC: 2048
rand_sets[101]: 338
Assign rand_sets[102]: 1693  LLC: 2048
rand_sets[102]: 1693
Assign rand_sets[103]: 6  LLC: 2048
rand_sets[103]: 6
Assign rand_sets[104]: 671  LLC: 2048
rand_sets[104]: 671
Assign rand_sets[105]: 490  LLC: 2048
rand_sets[105]: 490
Assign rand_sets[106]: 1461  LLC: 2048
rand_sets[106]: 1461
Assign rand_sets[107]: 1730  LLC: 2048
rand_sets[107]: 1730
Assign rand_sets[108]: 1030  LLC: 2048
rand_sets[108]: 1030
Assign rand_sets[109]: 19  LLC: 2048
rand_sets[109]: 19
Assign rand_sets[110]: 920  LLC: 2048
Assign rand_sets[110]: 329  LLC: 2048
rand_sets[110]: 329
Assign rand_sets[111]: 1714  LLC: 2048
rand_sets[111]: 1714
Assign rand_sets[112]: 1  LLC: 2048
rand_sets[112]: 1
Assign rand_sets[113]: 1822  LLC: 2048
rand_sets[113]: 1822
Assign rand_sets[114]: 172  LLC: 2048
rand_sets[114]: 172
Assign rand_sets[115]: 1586  LLC: 2048
rand_sets[115]: 1586
Assign rand_sets[116]: 648  LLC: 2048
rand_sets[116]: 648
Assign rand_sets[117]: 1329  LLC: 2048
rand_sets[117]: 1329
Assign rand_sets[118]: 668  LLC: 2048
rand_sets[118]: 668
Assign rand_sets[119]: 1874  LLC: 2048
rand_sets[119]: 1874
Assign rand_sets[120]: 70  LLC: 2048
rand_sets[120]: 70
Assign rand_sets[121]: 661  LLC: 2048
rand_sets[121]: 661
Assign rand_sets[122]: 1649  LLC: 2048
rand_sets[122]: 1649
Assign rand_sets[123]: 1590  LLC: 2048
rand_sets[123]: 1590
Assign rand_sets[124]: 911  LLC: 2048
rand_sets[124]: 911
Assign rand_sets[125]: 1367  LLC: 2048
rand_sets[125]: 1367
Assign rand_sets[126]: 1782  LLC: 2048
rand_sets[126]: 1782
Assign rand_sets[127]: 569  LLC: 2048
rand_sets[127]: 569
Heartbeat CPU 0 instructions: 10000000 cycles: 3913880 heartbeat IPC: 2.55501 cumulative IPC: 2.55501 (Simulation time: 0 hr 0 min 23 sec) 
Heartbeat CPU 0 instructions: 20000000 cycles: 7798820 heartbeat IPC: 2.57404 cumulative IPC: 2.56449 (Simulation time: 0 hr 0 min 47 sec) 
Heartbeat CPU 0 instructions: 30000002 cycles: 11687098 heartbeat IPC: 2.57183 cumulative IPC: 2.56693 (Simulation time: 0 hr 1 min 11 sec) 
Heartbeat CPU 0 instructions: 40000000 cycles: 15534060 heartbeat IPC: 2.59945 cumulative IPC: 2.57499 (Simulation time: 0 hr 1 min 34 sec) 
Heartbeat CPU 0 instructions: 50000003 cycles: 19429668 heartbeat IPC: 2.56699 cumulative IPC: 2.57338 (Simulation time: 0 hr 1 min 58 sec) 
Heartbeat CPU 0 instructions: 60000003 cycles: 23343361 heartbeat IPC: 2.55513 cumulative IPC: 2.57032 (Simulation time: 0 hr 2 min 21 sec) 
Heartbeat CPU 0 instructions: 70000003 cycles: 26923793 heartbeat IPC: 2.79296 cumulative IPC: 2.59993 (Simulation time: 0 hr 2 min 44 sec) 
Heartbeat CPU 0 instructions: 80000001 cycles: 30549857 heartbeat IPC: 2.75781 cumulative IPC: 2.61867 (Simulation time: 0 hr 3 min 8 sec) 
Heartbeat CPU 0 instructions: 90000000 cycles: 34402342 heartbeat IPC: 2.59573 cumulative IPC: 2.6161 (Simulation time: 0 hr 3 min 31 sec) 
Heartbeat CPU 0 instructions: 100000000 cycles: 38346568 heartbeat IPC: 2.53535 cumulative IPC: 2.6078 (Simulation time: 0 hr 3 min 55 sec) 

Warmup complete CPU 0 instructions: 100000004 cycles: 38346569 (Simulation time: 0 hr 3 min 55 sec) 

Heartbeat CPU 0 instructions: 110000000 cycles: 44832817 heartbeat IPC: 1.54172 cumulative IPC: 1.54172 (Simulation time: 0 hr 4 min 14 sec) 
Heartbeat CPU 0 instructions: 120000002 cycles: 51318381 heartbeat IPC: 1.54189 cumulative IPC: 1.5418 (Simulation time: 0 hr 4 min 34 sec) 
Heartbeat CPU 0 instructions: 130000000 cycles: 58731000 heartbeat IPC: 1.34905 cumulative IPC: 1.47171 (Simulation time: 0 hr 4 min 55 sec) 
Heartbeat CPU 0 instructions: 140000003 cycles: 66087264 heartbeat IPC: 1.35939 cumulative IPC: 1.44192 (Simulation time: 0 hr 5 min 15 sec) 
Heartbeat CPU 0 instructions: 150000000 cycles: 72780164 heartbeat IPC: 1.49412 cumulative IPC: 1.45207 (Simulation time: 0 hr 5 min 35 sec) 
Heartbeat CPU 0 instructions: 160000001 cycles: 79090800 heartbeat IPC: 1.58463 cumulative IPC: 1.4726 (Simulation time: 0 hr 5 min 54 sec) 
Heartbeat CPU 0 instructions: 170000002 cycles: 86177299 heartbeat IPC: 1.41113 cumulative IPC: 1.46349 (Simulation time: 0 hr 6 min 14 sec) 
Heartbeat CPU 0 instructions: 180000000 cycles: 92600338 heartbeat IPC: 1.5569 cumulative IPC: 1.47455 (Simulation time: 0 hr 6 min 34 sec) 
Heartbeat CPU 0 instructions: 190000003 cycles: 99003813 heartbeat IPC: 1.56165 cumulative IPC: 1.48375 (Simulation time: 0 hr 6 min 56 sec) 
Heartbeat CPU 0 instructions: 200000000 cycles: 106698546 heartbeat IPC: 1.29959 cumulative IPC: 1.46302 (Simulation time: 0 hr 7 min 17 sec) 
Heartbeat CPU 0 instructions: 210000001 cycles: 114154652 heartbeat IPC: 1.34118 cumulative IPC: 1.45103 (Simulation time: 0 hr 7 min 37 sec) 
Heartbeat CPU 0 instructions: 220000000 cycles: 121559621 heartbeat IPC: 1.35044 cumulative IPC: 1.44208 (Simulation time: 0 hr 7 min 58 sec) 
Heartbeat CPU 0 instructions: 230000000 cycles: 128942373 heartbeat IPC: 1.35451 cumulative IPC: 1.43494 (Simulation time: 0 hr 8 min 19 sec) 
Heartbeat CPU 0 instructions: 240000003 cycles: 136246042 heartbeat IPC: 1.36918 cumulative IPC: 1.43004 (Simulation time: 0 hr 8 min 40 sec) 
Heartbeat CPU 0 instructions: 250000002 cycles: 142356113 heartbeat IPC: 1.63664 cumulative IPC: 1.44218 (Simulation time: 0 hr 9 min 0 sec) 
Heartbeat CPU 0 instructions: 260000002 cycles: 149581770 heartbeat IPC: 1.38396 cumulative IPC: 1.43839 (Simulation time: 0 hr 9 min 20 sec) 
Heartbeat CPU 0 instructions: 270000001 cycles: 156474352 heartbeat IPC: 1.45083 cumulative IPC: 1.43912 (Simulation time: 0 hr 9 min 41 sec) 
Heartbeat CPU 0 instructions: 280000002 cycles: 163011060 heartbeat IPC: 1.52982 cumulative IPC: 1.44388 (Simulation time: 0 hr 10 min 2 sec) 
Heartbeat CPU 0 instructions: 290000001 cycles: 170304683 heartbeat IPC: 1.37106 cumulative IPC: 1.43985 (Simulation time: 0 hr 10 min 22 sec) 
Heartbeat CPU 0 instructions: 300000000 cycles: 177905575 heartbeat IPC: 1.31563 cumulative IPC: 1.43309 (Simulation time: 0 hr 10 min 43 sec) 
Heartbeat CPU 0 instructions: 310000003 cycles: 185365634 heartbeat IPC: 1.34047 cumulative IPC: 1.42839 (Simulation time: 0 hr 11 min 3 sec) 
Heartbeat CPU 0 instructions: 320000001 cycles: 192421538 heartbeat IPC: 1.41725 cumulative IPC: 1.42788 (Simulation time: 0 hr 11 min 23 sec) 
Heartbeat CPU 0 instructions: 330000000 cycles: 198752057 heartbeat IPC: 1.57965 cumulative IPC: 1.43387 (Simulation time: 0 hr 11 min 43 sec) 
Heartbeat CPU 0 instructions: 340000002 cycles: 205312781 heartbeat IPC: 1.52422 cumulative IPC: 1.43742 (Simulation time: 0 hr 12 min 4 sec) 
Heartbeat CPU 0 instructions: 350000000 cycles: 211966103 heartbeat IPC: 1.50301 cumulative IPC: 1.43993 (Simulation time: 0 hr 12 min 24 sec) 
Heartbeat CPU 0 instructions: 360000001 cycles: 219322068 heartbeat IPC: 1.35944 cumulative IPC: 1.43666 (Simulation time: 0 hr 12 min 44 sec) 
Heartbeat CPU 0 instructions: 370000003 cycles: 226046774 heartbeat IPC: 1.48705 cumulative IPC: 1.43846 (Simulation time: 0 hr 13 min 5 sec) 
Heartbeat CPU 0 instructions: 380000003 cycles: 233076119 heartbeat IPC: 1.42261 cumulative IPC: 1.43789 (Simulation time: 0 hr 13 min 25 sec) 
Heartbeat CPU 0 instructions: 390000001 cycles: 240488086 heartbeat IPC: 1.34917 cumulative IPC: 1.43464 (Simulation time: 0 hr 13 min 46 sec) 
Heartbeat CPU 0 instructions: 400000001 cycles: 247846724 heartbeat IPC: 1.35895 cumulative IPC: 1.43198 (Simulation time: 0 hr 14 min 7 sec) 
Heartbeat CPU 0 instructions: 410000000 cycles: 254717080 heartbeat IPC: 1.45553 cumulative IPC: 1.43273 (Simulation time: 0 hr 14 min 26 sec) 
Heartbeat CPU 0 instructions: 420000001 cycles: 261522194 heartbeat IPC: 1.46948 cumulative IPC: 1.43385 (Simulation time: 0 hr 14 min 47 sec) 
Heartbeat CPU 0 instructions: 430000000 cycles: 267811373 heartbeat IPC: 1.59003 cumulative IPC: 1.43813 (Simulation time: 0 hr 15 min 8 sec) 
Heartbeat CPU 0 instructions: 440000000 cycles: 275035983 heartbeat IPC: 1.38416 cumulative IPC: 1.43648 (Simulation time: 0 hr 15 min 28 sec) 
Heartbeat CPU 0 instructions: 450000000 cycles: 281317220 heartbeat IPC: 1.59204 cumulative IPC: 1.4405 (Simulation time: 0 hr 15 min 50 sec) 
Heartbeat CPU 0 instructions: 460000002 cycles: 288506347 heartbeat IPC: 1.39099 cumulative IPC: 1.43908 (Simulation time: 0 hr 16 min 11 sec) 
Heartbeat CPU 0 instructions: 470000003 cycles: 299114228 heartbeat IPC: 0.942695 cumulative IPC: 1.41889 (Simulation time: 0 hr 16 min 32 sec) 
Heartbeat CPU 0 instructions: 480000003 cycles: 309407621 heartbeat IPC: 0.971497 cumulative IPC: 1.4019 (Simulation time: 0 hr 16 min 52 sec) 
Heartbeat CPU 0 instructions: 490000002 cycles: 316514707 heartbeat IPC: 1.40705 cumulative IPC: 1.40203 (Simulation time: 0 hr 17 min 11 sec) 
Heartbeat CPU 0 instructions: 500000001 cycles: 324868710 heartbeat IPC: 1.19703 cumulative IPC: 1.39605 (Simulation time: 0 hr 17 min 30 sec) 
Heartbeat CPU 0 instructions: 510000002 cycles: 335999327 heartbeat IPC: 0.898423 cumulative IPC: 1.37744 (Simulation time: 0 hr 17 min 49 sec) 
Heartbeat CPU 0 instructions: 520000003 cycles: 352312662 heartbeat IPC: 0.612996 cumulative IPC: 1.33772 (Simulation time: 0 hr 18 min 10 sec) 
Heartbeat CPU 0 instructions: 530000003 cycles: 366853246 heartbeat IPC: 0.68773 cumulative IPC: 1.30895 (Simulation time: 0 hr 18 min 30 sec) 
Heartbeat CPU 0 instructions: 540000002 cycles: 380148339 heartbeat IPC: 0.752157 cumulative IPC: 1.2873 (Simulation time: 0 hr 18 min 51 sec) 
Heartbeat CPU 0 instructions: 550000000 cycles: 396481075 heartbeat IPC: 0.612267 cumulative IPC: 1.25651 (Simulation time: 0 hr 19 min 12 sec) 
Heartbeat CPU 0 instructions: 560000001 cycles: 404164930 heartbeat IPC: 1.30143 cumulative IPC: 1.25745 (Simulation time: 0 hr 19 min 33 sec) 
Heartbeat CPU 0 instructions: 570000000 cycles: 411565144 heartbeat IPC: 1.35131 cumulative IPC: 1.25932 (Simulation time: 0 hr 19 min 54 sec) 
Heartbeat CPU 0 instructions: 580000000 cycles: 419608532 heartbeat IPC: 1.24326 cumulative IPC: 1.25898 (Simulation time: 0 hr 20 min 15 sec) 
Heartbeat CPU 0 instructions: 590000000 cycles: 427578756 heartbeat IPC: 1.25467 cumulative IPC: 1.25889 (Simulation time: 0 hr 20 min 36 sec) 
Heartbeat CPU 0 instructions: 600000001 cycles: 439591024 heartbeat IPC: 0.832482 cumulative IPC: 1.24612 (Simulation time: 0 hr 20 min 57 sec) 
Heartbeat CPU 0 instructions: 610000001 cycles: 454775471 heartbeat IPC: 0.658569 cumulative IPC: 1.2247 (Simulation time: 0 hr 21 min 19 sec) 
Heartbeat CPU 0 instructions: 620000002 cycles: 470692130 heartbeat IPC: 0.628273 cumulative IPC: 1.20274 (Simulation time: 0 hr 21 min 40 sec) 
Heartbeat CPU 0 instructions: 630000003 cycles: 482451254 heartbeat IPC: 0.850404 cumulative IPC: 1.19341 (Simulation time: 0 hr 22 min 2 sec) 
Heartbeat CPU 0 instructions: 640000000 cycles: 494962572 heartbeat IPC: 0.799276 cumulative IPC: 1.18261 (Simulation time: 0 hr 22 min 24 sec) 
Heartbeat CPU 0 instructions: 650000003 cycles: 510634222 heartbeat IPC: 0.638095 cumulative IPC: 1.16454 (Simulation time: 0 hr 22 min 45 sec) 
Heartbeat CPU 0 instructions: 660000000 cycles: 525372930 heartbeat IPC: 0.678485 cumulative IPC: 1.14984 (Simulation time: 0 hr 23 min 6 sec) 
Heartbeat CPU 0 instructions: 670000001 cycles: 535494754 heartbeat IPC: 0.987964 cumulative IPC: 1.14654 (Simulation time: 0 hr 23 min 28 sec) 
Heartbeat CPU 0 instructions: 680000000 cycles: 551986253 heartbeat IPC: 0.606373 cumulative IPC: 1.1292 (Simulation time: 0 hr 23 min 50 sec) 
Heartbeat CPU 0 instructions: 690000002 cycles: 567372451 heartbeat IPC: 0.649933 cumulative IPC: 1.11526 (Simulation time: 0 hr 24 min 11 sec) 
Heartbeat CPU 0 instructions: 700000001 cycles: 574499286 heartbeat IPC: 1.40315 cumulative IPC: 1.11908 (Simulation time: 0 hr 24 min 32 sec) 
Heartbeat CPU 0 instructions: 710000001 cycles: 581130965 heartbeat IPC: 1.50791 cumulative IPC: 1.12383 (Simulation time: 0 hr 24 min 53 sec) 
Heartbeat CPU 0 instructions: 720000001 cycles: 587720509 heartbeat IPC: 1.51756 cumulative IPC: 1.12856 (Simulation time: 0 hr 25 min 13 sec) 
Heartbeat CPU 0 instructions: 730000001 cycles: 593469020 heartbeat IPC: 1.73958 cumulative IPC: 1.13488 (Simulation time: 0 hr 25 min 36 sec) 
Heartbeat CPU 0 instructions: 740000000 cycles: 599587401 heartbeat IPC: 1.63442 cumulative IPC: 1.14033 (Simulation time: 0 hr 25 min 58 sec) 
Heartbeat CPU 0 instructions: 750000002 cycles: 606473316 heartbeat IPC: 1.45224 cumulative IPC: 1.14411 (Simulation time: 0 hr 26 min 20 sec) 
Heartbeat CPU 0 instructions: 760000000 cycles: 613545847 heartbeat IPC: 1.41392 cumulative IPC: 1.14743 (Simulation time: 0 hr 26 min 40 sec) 
Heartbeat CPU 0 instructions: 770000000 cycles: 620370264 heartbeat IPC: 1.46533 cumulative IPC: 1.15116 (Simulation time: 0 hr 27 min 1 sec) 
Heartbeat CPU 0 instructions: 780000003 cycles: 626828019 heartbeat IPC: 1.54853 cumulative IPC: 1.15552 (Simulation time: 0 hr 27 min 23 sec) 
Heartbeat CPU 0 instructions: 790000000 cycles: 633585801 heartbeat IPC: 1.47978 cumulative IPC: 1.1592 (Simulation time: 0 hr 27 min 44 sec) 
Heartbeat CPU 0 instructions: 800000001 cycles: 640040824 heartbeat IPC: 1.54918 cumulative IPC: 1.16338 (Simulation time: 0 hr 28 min 6 sec) 
Heartbeat CPU 0 instructions: 810000000 cycles: 647071284 heartbeat IPC: 1.42238 cumulative IPC: 1.16637 (Simulation time: 0 hr 28 min 27 sec) 
Heartbeat CPU 0 instructions: 820000002 cycles: 652840434 heartbeat IPC: 1.73336 cumulative IPC: 1.1717 (Simulation time: 0 hr 28 min 46 sec) 
Heartbeat CPU 0 instructions: 830000002 cycles: 658472043 heartbeat IPC: 1.77569 cumulative IPC: 1.17718 (Simulation time: 0 hr 29 min 4 sec) 
Heartbeat CPU 0 instructions: 840000003 cycles: 665133143 heartbeat IPC: 1.50125 cumulative IPC: 1.18063 (Simulation time: 0 hr 29 min 24 sec) 
Heartbeat CPU 0 instructions: 850000000 cycles: 672295154 heartbeat IPC: 1.39626 cumulative IPC: 1.18306 (Simulation time: 0 hr 29 min 44 sec) 
Heartbeat CPU 0 instructions: 860000000 cycles: 678934329 heartbeat IPC: 1.50621 cumulative IPC: 1.18641 (Simulation time: 0 hr 30 min 4 sec) 
Heartbeat CPU 0 instructions: 870000001 cycles: 685610993 heartbeat IPC: 1.49775 cumulative IPC: 1.18962 (Simulation time: 0 hr 30 min 25 sec) 
Heartbeat CPU 0 instructions: 880000000 cycles: 692524825 heartbeat IPC: 1.44638 cumulative IPC: 1.19234 (Simulation time: 0 hr 30 min 46 sec) 
Heartbeat CPU 0 instructions: 890000001 cycles: 699568280 heartbeat IPC: 1.41976 cumulative IPC: 1.19476 (Simulation time: 0 hr 31 min 7 sec) 
Heartbeat CPU 0 instructions: 900000001 cycles: 706386669 heartbeat IPC: 1.46662 cumulative IPC: 1.19753 (Simulation time: 0 hr 31 min 27 sec) 
Heartbeat CPU 0 instructions: 910000001 cycles: 712329201 heartbeat IPC: 1.68278 cumulative IPC: 1.20181 (Simulation time: 0 hr 31 min 48 sec) 
Heartbeat CPU 0 instructions: 920000000 cycles: 718852571 heartbeat IPC: 1.53295 cumulative IPC: 1.20499 (Simulation time: 0 hr 32 min 9 sec) 
Heartbeat CPU 0 instructions: 930000003 cycles: 725250080 heartbeat IPC: 1.56311 cumulative IPC: 1.20832 (Simulation time: 0 hr 32 min 30 sec) 
Heartbeat CPU 0 instructions: 940000002 cycles: 731748699 heartbeat IPC: 1.53879 cumulative IPC: 1.21142 (Simulation time: 0 hr 32 min 52 sec) 
Heartbeat CPU 0 instructions: 950000002 cycles: 738703864 heartbeat IPC: 1.43778 cumulative IPC: 1.21367 (Simulation time: 0 hr 33 min 15 sec) 
Heartbeat CPU 0 instructions: 960000000 cycles: 745823136 heartbeat IPC: 1.40464 cumulative IPC: 1.21559 (Simulation time: 0 hr 33 min 36 sec) 
Heartbeat CPU 0 instructions: 970000000 cycles: 752953057 heartbeat IPC: 1.40254 cumulative IPC: 1.21745 (Simulation time: 0 hr 33 min 57 sec) 
Heartbeat CPU 0 instructions: 980000000 cycles: 759974073 heartbeat IPC: 1.4243 cumulative IPC: 1.21947 (Simulation time: 0 hr 34 min 17 sec) 
Heartbeat CPU 0 instructions: 990000000 cycles: 767133846 heartbeat IPC: 1.39669 cumulative IPC: 1.22121 (Simulation time: 0 hr 34 min 39 sec) 
Heartbeat CPU 0 instructions: 1000000000 cycles: 773963588 heartbeat IPC: 1.46418 cumulative IPC: 1.22346 (Simulation time: 0 hr 35 min 0 sec) 
Heartbeat CPU 0 instructions: 1010000000 cycles: 779925136 heartbeat IPC: 1.67742 cumulative IPC: 1.22711 (Simulation time: 0 hr 35 min 20 sec) 
Heartbeat CPU 0 instructions: 1020000003 cycles: 786850139 heartbeat IPC: 1.44404 cumulative IPC: 1.22912 (Simulation time: 0 hr 35 min 41 sec) 
Heartbeat CPU 0 instructions: 1030000000 cycles: 793284667 heartbeat IPC: 1.55412 cumulative IPC: 1.23189 (Simulation time: 0 hr 36 min 3 sec) 
Heartbeat CPU 0 instructions: 1040000000 cycles: 799996493 heartbeat IPC: 1.48991 cumulative IPC: 1.23416 (Simulation time: 0 hr 36 min 24 sec) 
Heartbeat CPU 0 instructions: 1050000000 cycles: 807039608 heartbeat IPC: 1.41983 cumulative IPC: 1.23586 (Simulation time: 0 hr 36 min 45 sec) 
Heartbeat CPU 0 instructions: 1060000001 cycles: 814323102 heartbeat IPC: 1.37297 cumulative IPC: 1.23715 (Simulation time: 0 hr 37 min 7 sec) 
Heartbeat CPU 0 instructions: 1070000000 cycles: 821534406 heartbeat IPC: 1.38671 cumulative IPC: 1.23853 (Simulation time: 0 hr 37 min 28 sec) 
Heartbeat CPU 0 instructions: 1080000000 cycles: 828065057 heartbeat IPC: 1.53124 cumulative IPC: 1.24095 (Simulation time: 0 hr 37 min 48 sec) 
Heartbeat CPU 0 instructions: 1090000001 cycles: 834799600 heartbeat IPC: 1.48488 cumulative IPC: 1.24301 (Simulation time: 0 hr 38 min 9 sec) 
Heartbeat CPU 0 instructions: 1100000000 cycles: 840976756 heartbeat IPC: 1.61887 cumulative IPC: 1.2459 (Simulation time: 0 hr 38 min 30 sec) 
Finished CPU 0 instructions: 1000000002 cycles: 802630198 cumulative IPC: 1.2459 (Simulation time: 0 hr 38 min 30 sec) 

ChampSim completed all CPUs

Region of Interest Statistics

CPU 0 cumulative IPC: 1.2459 instructions: 1000000002 cycles: 802630198
L1D TOTAL     ACCESS:  370664396  HIT:  369258857  MISS:    1405539
L1D LOAD      ACCESS:  163377553  HIT:  162084376  MISS:    1293177
L1D RFO       ACCESS:  207286843  HIT:  207174481  MISS:     112362
L1D PREFETCH  ACCESS:          0  HIT:          0  MISS:          0
L1D WRITEBACK ACCESS:          0  HIT:          0  MISS:          0
L1D PREFETCH  REQUESTED:          0  ISSUED:          0  USEFUL:          0  USELESS:          0
L1D AVERAGE MISS LATENCY: 57.5018 cycles
L1I TOTAL     ACCESS:  158614493  HIT:  156964729  MISS:    1649764
L1I LOAD      ACCESS:  158614493  HIT:  156964729  MISS:    1649764
L1I RFO       ACCESS:          0  HIT:          0  MISS:          0
L1I PREFETCH  ACCESS:          0  HIT:          0  MISS:          0
L1I WRITEBACK ACCESS:          0  HIT:          0  MISS:          0
L1I PREFETCH  REQUESTED:          0  ISSUED:          0  USEFUL:          0  USELESS:          0
L1I AVERAGE MISS LATENCY: 16.409 cycles
L2C TOTAL     ACCESS:    3423761  HIT:    2765450  MISS:     658311
L2C LOAD      ACCESS:    2942814  HIT:    2328396  MISS:     614418
L2C RFO       ACCESS:     112356  HIT:      72131  MISS:      40225
L2C PREFETCH  ACCESS:          0  HIT:          0  MISS:          0
L2C WRITEBACK ACCESS:     368591  HIT:     364923  MISS:       3668
L2C PREFETCH  REQUESTED:          0  ISSUED:          0  USEFUL:          0  USELESS:          0
L2C AVERAGE MISS LATENCY: 107.395 cycles
LLC TOTAL     ACCESS:     787507  HIT:     488658  MISS:     298849
LLC LOAD      ACCESS:     614413  HIT:     345440  MISS:     268973
LLC RFO       ACCESS:      40224  HIT:      23275  MISS:      16949
LLC PREFETCH  ACCESS:          0  HIT:          0  MISS:          0
LLC WRITEBACK ACCESS:     132870  HIT:     119943  MISS:      12927
LLC PREFETCH  REQUESTED:          0  ISSUED:          0  USEFUL:          0  USELESS:          0
LLC AVERAGE MISS LATENCY: 148.354 cycles
Major fault: 0 Minor fault: 6011

DRAM Statistics
 CHANNEL 0
 RQ ROW_BUFFER_HIT:      85417  ROW_BUFFER_MISS:     200505
 DBUS_CONGESTED:      18698
 WQ ROW_BUFFER_HIT:      12684  ROW_BUFFER_MISS:      28120  FULL:          0

 AVG_CONGESTED_CYCLE: 6

CPU 0 Branch Prediction Accuracy: 97.1732% MPKI: 4.19273 Average ROB Occupancy at Mispredict: 78.3909

Branch types
NOT_BRANCH: 851679750 85.168%
BRANCH_DIRECT_JUMP: 20351476 2.03515%
BRANCH_INDIRECT: 7090827 0.709083%
BRANCH_CONDITIONAL: 105247556 10.5248%
BRANCH_DIRECT_CALL: 7012686 0.701269%
BRANCH_INDIRECT_CALL: 802358 0.0802358%
BRANCH_RETURN: 7815043 0.781504%
BRANCH_OTHER: 0 0%

