
*** ChampSim Multicore Out-of-Order Simulator ***

Warmup Instructions: 100000000
Simulation Instructions: 1000000000
Number of CPUs: 1
LLC sets: 2048
LLC ways: 16
Off-chip DRAM Size: 4096 MB Channels: 1 Width: 64-bit Data Rate: 3200 MT/s

CPU 0 runs /scratch/user/kevin.weston/dpc3-traces/600.champsimtrace.xz
CPU 0 Bimodal branch predictor
Per-line RRPV Initialized
PRRIP State Initialized
Assign SAMPLER_SET[0]: 454  LLC: 2048
SAMPLER_SET[0]: 454
Assign SAMPLER_SET[1]: 1662  LLC: 2048
SAMPLER_SET[1]: 1662
Assign SAMPLER_SET[2]: 1921  LLC: 2048
SAMPLER_SET[2]: 1921
Assign SAMPLER_SET[3]: 1131  LLC: 2048
SAMPLER_SET[3]: 1131
Assign SAMPLER_SET[4]: 331  LLC: 2048
SAMPLER_SET[4]: 331
Assign SAMPLER_SET[5]: 1531  LLC: 2048
SAMPLER_SET[5]: 1531
Assign SAMPLER_SET[6]: 482  LLC: 2048
SAMPLER_SET[6]: 482
Assign SAMPLER_SET[7]: 1275  LLC: 2048
SAMPLER_SET[7]: 1275
Assign SAMPLER_SET[8]: 1876  LLC: 2048
SAMPLER_SET[8]: 1876
Assign SAMPLER_SET[9]: 2038  LLC: 2048
SAMPLER_SET[9]: 2038
Assign SAMPLER_SET[10]: 701  LLC: 2048
SAMPLER_SET[10]: 701
Assign SAMPLER_SET[11]: 479  LLC: 2048
SAMPLER_SET[11]: 479
Assign SAMPLER_SET[12]: 892  LLC: 2048
SAMPLER_SET[12]: 892
Assign SAMPLER_SET[13]: 1820  LLC: 2048
SAMPLER_SET[13]: 1820
Assign SAMPLER_SET[14]: 1505  LLC: 2048
SAMPLER_SET[14]: 1505
Assign SAMPLER_SET[15]: 1159  LLC: 2048
SAMPLER_SET[15]: 1159
Assign SAMPLER_SET[16]: 513  LLC: 2048
SAMPLER_SET[16]: 513
Assign SAMPLER_SET[17]: 703  LLC: 2048
SAMPLER_SET[17]: 703
Assign SAMPLER_SET[18]: 561  LLC: 2048
SAMPLER_SET[18]: 561
Assign SAMPLER_SET[19]: 990  LLC: 2048
SAMPLER_SET[19]: 990
Assign SAMPLER_SET[20]: 342  LLC: 2048
SAMPLER_SET[20]: 342
Assign SAMPLER_SET[21]: 882  LLC: 2048
SAMPLER_SET[21]: 882
Assign SAMPLER_SET[22]: 15  LLC: 2048
SAMPLER_SET[22]: 15
Assign SAMPLER_SET[23]: 71  LLC: 2048
SAMPLER_SET[23]: 71
Assign SAMPLER_SET[24]: 1127  LLC: 2048
SAMPLER_SET[24]: 1127
Assign SAMPLER_SET[25]: 1382  LLC: 2048
SAMPLER_SET[25]: 1382
Assign SAMPLER_SET[26]: 647  LLC: 2048
SAMPLER_SET[26]: 647
Assign SAMPLER_SET[27]: 857  LLC: 2048
SAMPLER_SET[27]: 857
Assign SAMPLER_SET[28]: 1450  LLC: 2048
SAMPLER_SET[28]: 1450
Assign SAMPLER_SET[29]: 1160  LLC: 2048
SAMPLER_SET[29]: 1160
Assign SAMPLER_SET[30]: 1852  LLC: 2048
SAMPLER_SET[30]: 1852
Assign SAMPLER_SET[31]: 1881  LLC: 2048
SAMPLER_SET[31]: 1881
Assign SAMPLER_SET[32]: 1770  LLC: 2048
SAMPLER_SET[32]: 1770
Assign SAMPLER_SET[33]: 1622  LLC: 2048
SAMPLER_SET[33]: 1622
Assign SAMPLER_SET[34]: 275  LLC: 2048
SAMPLER_SET[34]: 275
Assign SAMPLER_SET[35]: 635  LLC: 2048
SAMPLER_SET[35]: 635
Assign SAMPLER_SET[36]: 466  LLC: 2048
SAMPLER_SET[36]: 466
Assign SAMPLER_SET[37]: 1413  LLC: 2048
SAMPLER_SET[37]: 1413
Assign SAMPLER_SET[38]: 417  LLC: 2048
SAMPLER_SET[38]: 417
Assign SAMPLER_SET[39]: 472  LLC: 2048
SAMPLER_SET[39]: 472
Assign SAMPLER_SET[40]: 1340  LLC: 2048
SAMPLER_SET[40]: 1340
Assign SAMPLER_SET[41]: 852  LLC: 2048
SAMPLER_SET[41]: 852
Assign SAMPLER_SET[42]: 1365  LLC: 2048
SAMPLER_SET[42]: 1365
Assign SAMPLER_SET[43]: 47  LLC: 2048
SAMPLER_SET[43]: 47
Assign SAMPLER_SET[44]: 823  LLC: 2048
SAMPLER_SET[44]: 823
Assign SAMPLER_SET[45]: 686  LLC: 2048
SAMPLER_SET[45]: 686
Assign SAMPLER_SET[46]: 1637  LLC: 2048
SAMPLER_SET[46]: 1637
Assign SAMPLER_SET[47]: 1115  LLC: 2048
SAMPLER_SET[47]: 1115
Assign SAMPLER_SET[48]: 986  LLC: 2048
SAMPLER_SET[48]: 986
Assign SAMPLER_SET[49]: 258  LLC: 2048
SAMPLER_SET[49]: 258
Assign SAMPLER_SET[50]: 633  LLC: 2048
SAMPLER_SET[50]: 633
Assign SAMPLER_SET[51]: 920  LLC: 2048
SAMPLER_SET[51]: 920
Assign SAMPLER_SET[52]: 204  LLC: 2048
SAMPLER_SET[52]: 204
Assign SAMPLER_SET[53]: 227  LLC: 2048
SAMPLER_SET[53]: 227
Assign SAMPLER_SET[54]: 1818  LLC: 2048
SAMPLER_SET[54]: 1818
Assign SAMPLER_SET[55]: 886  LLC: 2048
SAMPLER_SET[55]: 886
Assign SAMPLER_SET[56]: 1422  LLC: 2048
SAMPLER_SET[56]: 1422
Assign SAMPLER_SET[57]: 607  LLC: 2048
SAMPLER_SET[57]: 607
Assign SAMPLER_SET[58]: 217  LLC: 2048
SAMPLER_SET[58]: 217
Assign SAMPLER_SET[59]: 1945  LLC: 2048
SAMPLER_SET[59]: 1945
Assign SAMPLER_SET[60]: 143  LLC: 2048
SAMPLER_SET[60]: 143
Assign SAMPLER_SET[61]: 1311  LLC: 2048
SAMPLER_SET[61]: 1311
Assign SAMPLER_SET[62]: 319  LLC: 2048
SAMPLER_SET[62]: 319
Assign SAMPLER_SET[63]: 1846  LLC: 2048
SAMPLER_SET[63]: 1846
Heartbeat CPU 0 instructions: 10000000 cycles: 3913880 heartbeat IPC: 2.55501 cumulative IPC: 2.55501 (Simulation time: 0 hr 0 min 25 sec) 
Heartbeat CPU 0 instructions: 20000000 cycles: 7798820 heartbeat IPC: 2.57404 cumulative IPC: 2.56449 (Simulation time: 0 hr 0 min 49 sec) 
Heartbeat CPU 0 instructions: 30000002 cycles: 11687098 heartbeat IPC: 2.57183 cumulative IPC: 2.56693 (Simulation time: 0 hr 1 min 14 sec) 
Heartbeat CPU 0 instructions: 40000000 cycles: 15534060 heartbeat IPC: 2.59945 cumulative IPC: 2.57499 (Simulation time: 0 hr 1 min 38 sec) 
Heartbeat CPU 0 instructions: 50000003 cycles: 19429668 heartbeat IPC: 2.56699 cumulative IPC: 2.57338 (Simulation time: 0 hr 2 min 3 sec) 
Heartbeat CPU 0 instructions: 60000003 cycles: 23343361 heartbeat IPC: 2.55513 cumulative IPC: 2.57032 (Simulation time: 0 hr 2 min 27 sec) 
Heartbeat CPU 0 instructions: 70000003 cycles: 26923793 heartbeat IPC: 2.79296 cumulative IPC: 2.59993 (Simulation time: 0 hr 2 min 52 sec) 
Heartbeat CPU 0 instructions: 80000001 cycles: 30549857 heartbeat IPC: 2.75781 cumulative IPC: 2.61867 (Simulation time: 0 hr 3 min 17 sec) 
Heartbeat CPU 0 instructions: 90000000 cycles: 34402342 heartbeat IPC: 2.59573 cumulative IPC: 2.6161 (Simulation time: 0 hr 3 min 41 sec) 
Heartbeat CPU 0 instructions: 100000000 cycles: 38346569 heartbeat IPC: 2.53535 cumulative IPC: 2.6078 (Simulation time: 0 hr 4 min 5 sec) 

Warmup complete CPU 0 instructions: 100000004 cycles: 38346570 (Simulation time: 0 hr 4 min 5 sec) 

Heartbeat CPU 0 instructions: 110000000 cycles: 44833003 heartbeat IPC: 1.54168 cumulative IPC: 1.54168 (Simulation time: 0 hr 4 min 25 sec) 
Heartbeat CPU 0 instructions: 120000002 cycles: 51320150 heartbeat IPC: 1.54151 cumulative IPC: 1.54159 (Simulation time: 0 hr 4 min 45 sec) 
Heartbeat CPU 0 instructions: 130000000 cycles: 58732885 heartbeat IPC: 1.34903 cumulative IPC: 1.47158 (Simulation time: 0 hr 5 min 6 sec) 
Heartbeat CPU 0 instructions: 140000003 cycles: 66090432 heartbeat IPC: 1.35915 cumulative IPC: 1.44176 (Simulation time: 0 hr 5 min 26 sec) 
Heartbeat CPU 0 instructions: 150000000 cycles: 72782867 heartbeat IPC: 1.49422 cumulative IPC: 1.45196 (Simulation time: 0 hr 5 min 46 sec) 
Heartbeat CPU 0 instructions: 160000001 cycles: 79091643 heartbeat IPC: 1.58509 cumulative IPC: 1.47257 (Simulation time: 0 hr 6 min 5 sec) 
Heartbeat CPU 0 instructions: 170000002 cycles: 86175649 heartbeat IPC: 1.41163 cumulative IPC: 1.46354 (Simulation time: 0 hr 6 min 25 sec) 
Heartbeat CPU 0 instructions: 180000000 cycles: 92597547 heartbeat IPC: 1.55717 cumulative IPC: 1.47463 (Simulation time: 0 hr 6 min 45 sec) 
Heartbeat CPU 0 instructions: 190000003 cycles: 99002945 heartbeat IPC: 1.56118 cumulative IPC: 1.48377 (Simulation time: 0 hr 7 min 8 sec) 
Heartbeat CPU 0 instructions: 200000000 cycles: 106697997 heartbeat IPC: 1.29954 cumulative IPC: 1.46303 (Simulation time: 0 hr 7 min 29 sec) 
Heartbeat CPU 0 instructions: 210000001 cycles: 114154724 heartbeat IPC: 1.34107 cumulative IPC: 1.45103 (Simulation time: 0 hr 7 min 50 sec) 
Heartbeat CPU 0 instructions: 220000000 cycles: 121557173 heartbeat IPC: 1.3509 cumulative IPC: 1.44212 (Simulation time: 0 hr 8 min 10 sec) 
Heartbeat CPU 0 instructions: 230000000 cycles: 128941871 heartbeat IPC: 1.35415 cumulative IPC: 1.43495 (Simulation time: 0 hr 8 min 31 sec) 
Heartbeat CPU 0 instructions: 240000003 cycles: 136245724 heartbeat IPC: 1.36914 cumulative IPC: 1.43004 (Simulation time: 0 hr 8 min 52 sec) 
Heartbeat CPU 0 instructions: 250000002 cycles: 142355283 heartbeat IPC: 1.63678 cumulative IPC: 1.44219 (Simulation time: 0 hr 9 min 11 sec) 
Heartbeat CPU 0 instructions: 260000002 cycles: 149584213 heartbeat IPC: 1.38333 cumulative IPC: 1.43836 (Simulation time: 0 hr 9 min 32 sec) 
Heartbeat CPU 0 instructions: 270000001 cycles: 156478119 heartbeat IPC: 1.45056 cumulative IPC: 1.43907 (Simulation time: 0 hr 9 min 53 sec) 
Heartbeat CPU 0 instructions: 280000002 cycles: 163015427 heartbeat IPC: 1.52968 cumulative IPC: 1.44382 (Simulation time: 0 hr 10 min 14 sec) 
Heartbeat CPU 0 instructions: 290000001 cycles: 170312300 heartbeat IPC: 1.37045 cumulative IPC: 1.43977 (Simulation time: 0 hr 10 min 35 sec) 
Heartbeat CPU 0 instructions: 300000000 cycles: 177916132 heartbeat IPC: 1.31513 cumulative IPC: 1.43298 (Simulation time: 0 hr 10 min 56 sec) 
Heartbeat CPU 0 instructions: 310000003 cycles: 185377196 heartbeat IPC: 1.34029 cumulative IPC: 1.42827 (Simulation time: 0 hr 11 min 16 sec) 
Heartbeat CPU 0 instructions: 320000001 cycles: 192433474 heartbeat IPC: 1.41718 cumulative IPC: 1.42777 (Simulation time: 0 hr 11 min 36 sec) 
Heartbeat CPU 0 instructions: 330000000 cycles: 198766710 heartbeat IPC: 1.57897 cumulative IPC: 1.43374 (Simulation time: 0 hr 11 min 55 sec) 
Heartbeat CPU 0 instructions: 340000002 cycles: 205327529 heartbeat IPC: 1.5242 cumulative IPC: 1.43729 (Simulation time: 0 hr 12 min 17 sec) 
Heartbeat CPU 0 instructions: 350000000 cycles: 211980174 heartbeat IPC: 1.50316 cumulative IPC: 1.43981 (Simulation time: 0 hr 12 min 37 sec) 
Heartbeat CPU 0 instructions: 360000001 cycles: 219338087 heartbeat IPC: 1.35908 cumulative IPC: 1.43653 (Simulation time: 0 hr 12 min 58 sec) 
Heartbeat CPU 0 instructions: 370000003 cycles: 226065119 heartbeat IPC: 1.48654 cumulative IPC: 1.43832 (Simulation time: 0 hr 13 min 19 sec) 
Heartbeat CPU 0 instructions: 380000003 cycles: 233095945 heartbeat IPC: 1.42231 cumulative IPC: 1.43775 (Simulation time: 0 hr 13 min 40 sec) 
Heartbeat CPU 0 instructions: 390000001 cycles: 240508714 heartbeat IPC: 1.34902 cumulative IPC: 1.43449 (Simulation time: 0 hr 14 min 0 sec) 
Heartbeat CPU 0 instructions: 400000001 cycles: 247868185 heartbeat IPC: 1.35879 cumulative IPC: 1.43183 (Simulation time: 0 hr 14 min 21 sec) 
Heartbeat CPU 0 instructions: 410000000 cycles: 254737790 heartbeat IPC: 1.45569 cumulative IPC: 1.43259 (Simulation time: 0 hr 14 min 41 sec) 
Heartbeat CPU 0 instructions: 420000001 cycles: 261542665 heartbeat IPC: 1.46953 cumulative IPC: 1.43372 (Simulation time: 0 hr 15 min 1 sec) 
Heartbeat CPU 0 instructions: 430000000 cycles: 267830652 heartbeat IPC: 1.59033 cumulative IPC: 1.43801 (Simulation time: 0 hr 15 min 23 sec) 
Heartbeat CPU 0 instructions: 440000000 cycles: 275054841 heartbeat IPC: 1.38424 cumulative IPC: 1.43637 (Simulation time: 0 hr 15 min 43 sec) 
Heartbeat CPU 0 instructions: 450000000 cycles: 281336473 heartbeat IPC: 1.59194 cumulative IPC: 1.44039 (Simulation time: 0 hr 16 min 5 sec) 
Heartbeat CPU 0 instructions: 460000002 cycles: 288527598 heartbeat IPC: 1.3906 cumulative IPC: 1.43896 (Simulation time: 0 hr 16 min 26 sec) 
Heartbeat CPU 0 instructions: 470000003 cycles: 299125846 heartbeat IPC: 0.943552 cumulative IPC: 1.41882 (Simulation time: 0 hr 16 min 47 sec) 
Heartbeat CPU 0 instructions: 480000003 cycles: 309419529 heartbeat IPC: 0.97147 cumulative IPC: 1.40184 (Simulation time: 0 hr 17 min 7 sec) 
Heartbeat CPU 0 instructions: 490000002 cycles: 316528720 heartbeat IPC: 1.40663 cumulative IPC: 1.40196 (Simulation time: 0 hr 17 min 26 sec) 
Heartbeat CPU 0 instructions: 500000001 cycles: 324888301 heartbeat IPC: 1.19623 cumulative IPC: 1.39596 (Simulation time: 0 hr 17 min 45 sec) 
Heartbeat CPU 0 instructions: 510000002 cycles: 336109794 heartbeat IPC: 0.891147 cumulative IPC: 1.37693 (Simulation time: 0 hr 18 min 4 sec) 
Heartbeat CPU 0 instructions: 520000003 cycles: 352660495 heartbeat IPC: 0.604204 cumulative IPC: 1.33624 (Simulation time: 0 hr 18 min 25 sec) 
Heartbeat CPU 0 instructions: 530000003 cycles: 367345564 heartbeat IPC: 0.680964 cumulative IPC: 1.30699 (Simulation time: 0 hr 18 min 46 sec) 
Heartbeat CPU 0 instructions: 540000002 cycles: 380839104 heartbeat IPC: 0.741095 cumulative IPC: 1.2847 (Simulation time: 0 hr 19 min 6 sec) 
Heartbeat CPU 0 instructions: 550000000 cycles: 397355875 heartbeat IPC: 0.605445 cumulative IPC: 1.25345 (Simulation time: 0 hr 19 min 28 sec) 
Heartbeat CPU 0 instructions: 560000001 cycles: 405037532 heartbeat IPC: 1.3018 cumulative IPC: 1.25446 (Simulation time: 0 hr 19 min 49 sec) 
Heartbeat CPU 0 instructions: 570000000 cycles: 412445703 heartbeat IPC: 1.34986 cumulative IPC: 1.25635 (Simulation time: 0 hr 20 min 9 sec) 
Heartbeat CPU 0 instructions: 580000000 cycles: 420497610 heartbeat IPC: 1.24194 cumulative IPC: 1.25605 (Simulation time: 0 hr 20 min 31 sec) 
Heartbeat CPU 0 instructions: 590000000 cycles: 428467400 heartbeat IPC: 1.25474 cumulative IPC: 1.25602 (Simulation time: 0 hr 20 min 51 sec) 
Heartbeat CPU 0 instructions: 600000001 cycles: 440305049 heartbeat IPC: 0.844762 cumulative IPC: 1.24391 (Simulation time: 0 hr 21 min 13 sec) 
Heartbeat CPU 0 instructions: 610000001 cycles: 455490595 heartbeat IPC: 0.658521 cumulative IPC: 1.2226 (Simulation time: 0 hr 21 min 34 sec) 
Heartbeat CPU 0 instructions: 620000002 cycles: 471446057 heartbeat IPC: 0.626745 cumulative IPC: 1.20065 (Simulation time: 0 hr 21 min 55 sec) 
Heartbeat CPU 0 instructions: 630000003 cycles: 483242119 heartbeat IPC: 0.847741 cumulative IPC: 1.19129 (Simulation time: 0 hr 22 min 18 sec) 
Heartbeat CPU 0 instructions: 640000000 cycles: 495469561 heartbeat IPC: 0.817832 cumulative IPC: 1.1813 (Simulation time: 0 hr 22 min 40 sec) 
Heartbeat CPU 0 instructions: 650000003 cycles: 511113337 heartbeat IPC: 0.639232 cumulative IPC: 1.16336 (Simulation time: 0 hr 23 min 1 sec) 
Heartbeat CPU 0 instructions: 660000000 cycles: 525931893 heartbeat IPC: 0.674829 cumulative IPC: 1.14852 (Simulation time: 0 hr 23 min 22 sec) 
Heartbeat CPU 0 instructions: 670000001 cycles: 535995107 heartbeat IPC: 0.993718 cumulative IPC: 1.14539 (Simulation time: 0 hr 23 min 44 sec) 
Heartbeat CPU 0 instructions: 680000000 cycles: 552131083 heartbeat IPC: 0.619733 cumulative IPC: 1.12888 (Simulation time: 0 hr 24 min 6 sec) 
Heartbeat CPU 0 instructions: 690000002 cycles: 567674718 heartbeat IPC: 0.64335 cumulative IPC: 1.11462 (Simulation time: 0 hr 24 min 26 sec) 
Heartbeat CPU 0 instructions: 700000001 cycles: 574804496 heartbeat IPC: 1.40257 cumulative IPC: 1.11845 (Simulation time: 0 hr 24 min 48 sec) 
Heartbeat CPU 0 instructions: 710000001 cycles: 581442000 heartbeat IPC: 1.50659 cumulative IPC: 1.12319 (Simulation time: 0 hr 25 min 9 sec) 
Heartbeat CPU 0 instructions: 720000001 cycles: 588035784 heartbeat IPC: 1.51658 cumulative IPC: 1.12791 (Simulation time: 0 hr 25 min 30 sec) 
Heartbeat CPU 0 instructions: 730000001 cycles: 593784735 heartbeat IPC: 1.73945 cumulative IPC: 1.13424 (Simulation time: 0 hr 25 min 53 sec) 
Heartbeat CPU 0 instructions: 740000000 cycles: 599904785 heartbeat IPC: 1.63397 cumulative IPC: 1.13969 (Simulation time: 0 hr 26 min 16 sec) 
Heartbeat CPU 0 instructions: 750000002 cycles: 606776729 heartbeat IPC: 1.45519 cumulative IPC: 1.1435 (Simulation time: 0 hr 26 min 37 sec) 
Heartbeat CPU 0 instructions: 760000000 cycles: 613861438 heartbeat IPC: 1.41149 cumulative IPC: 1.1468 (Simulation time: 0 hr 26 min 57 sec) 
Heartbeat CPU 0 instructions: 770000000 cycles: 620694272 heartbeat IPC: 1.46352 cumulative IPC: 1.15052 (Simulation time: 0 hr 27 min 19 sec) 
Heartbeat CPU 0 instructions: 780000003 cycles: 627154256 heartbeat IPC: 1.54799 cumulative IPC: 1.15488 (Simulation time: 0 hr 27 min 40 sec) 
Heartbeat CPU 0 instructions: 790000000 cycles: 633920506 heartbeat IPC: 1.47792 cumulative IPC: 1.15855 (Simulation time: 0 hr 28 min 2 sec) 
Heartbeat CPU 0 instructions: 800000001 cycles: 640377672 heartbeat IPC: 1.54867 cumulative IPC: 1.16273 (Simulation time: 0 hr 28 min 23 sec) 
Heartbeat CPU 0 instructions: 810000000 cycles: 647417130 heartbeat IPC: 1.42056 cumulative IPC: 1.16571 (Simulation time: 0 hr 28 min 44 sec) 
Heartbeat CPU 0 instructions: 820000002 cycles: 653186258 heartbeat IPC: 1.73336 cumulative IPC: 1.17104 (Simulation time: 0 hr 29 min 3 sec) 
Heartbeat CPU 0 instructions: 830000002 cycles: 658817867 heartbeat IPC: 1.77569 cumulative IPC: 1.17652 (Simulation time: 0 hr 29 min 21 sec) 
Heartbeat CPU 0 instructions: 840000003 cycles: 665474909 heartbeat IPC: 1.50217 cumulative IPC: 1.17998 (Simulation time: 0 hr 29 min 41 sec) 
Heartbeat CPU 0 instructions: 850000000 cycles: 672633328 heartbeat IPC: 1.39696 cumulative IPC: 1.18243 (Simulation time: 0 hr 30 min 1 sec) 
Heartbeat CPU 0 instructions: 860000000 cycles: 679272907 heartbeat IPC: 1.50612 cumulative IPC: 1.18578 (Simulation time: 0 hr 30 min 21 sec) 
Heartbeat CPU 0 instructions: 870000001 cycles: 685952313 heartbeat IPC: 1.49714 cumulative IPC: 1.189 (Simulation time: 0 hr 30 min 41 sec) 
Heartbeat CPU 0 instructions: 880000000 cycles: 692867791 heartbeat IPC: 1.44603 cumulative IPC: 1.19171 (Simulation time: 0 hr 31 min 2 sec) 
Heartbeat CPU 0 instructions: 890000001 cycles: 699914326 heartbeat IPC: 1.41914 cumulative IPC: 1.19413 (Simulation time: 0 hr 31 min 23 sec) 
Heartbeat CPU 0 instructions: 900000001 cycles: 706735663 heartbeat IPC: 1.46599 cumulative IPC: 1.19691 (Simulation time: 0 hr 31 min 43 sec) 
Heartbeat CPU 0 instructions: 910000001 cycles: 712676979 heartbeat IPC: 1.68313 cumulative IPC: 1.20119 (Simulation time: 0 hr 32 min 4 sec) 
Heartbeat CPU 0 instructions: 920000000 cycles: 719203010 heartbeat IPC: 1.53232 cumulative IPC: 1.20437 (Simulation time: 0 hr 32 min 25 sec) 
Heartbeat CPU 0 instructions: 930000003 cycles: 725604141 heartbeat IPC: 1.56222 cumulative IPC: 1.2077 (Simulation time: 0 hr 32 min 46 sec) 
Heartbeat CPU 0 instructions: 940000002 cycles: 732107822 heartbeat IPC: 1.53759 cumulative IPC: 1.21079 (Simulation time: 0 hr 33 min 8 sec) 
Heartbeat CPU 0 instructions: 950000002 cycles: 739066875 heartbeat IPC: 1.43698 cumulative IPC: 1.21304 (Simulation time: 0 hr 33 min 31 sec) 
Heartbeat CPU 0 instructions: 960000000 cycles: 746189408 heartbeat IPC: 1.40399 cumulative IPC: 1.21496 (Simulation time: 0 hr 33 min 53 sec) 
Heartbeat CPU 0 instructions: 970000000 cycles: 753324273 heartbeat IPC: 1.40157 cumulative IPC: 1.21682 (Simulation time: 0 hr 34 min 14 sec) 
Heartbeat CPU 0 instructions: 980000000 cycles: 760346402 heartbeat IPC: 1.42407 cumulative IPC: 1.21884 (Simulation time: 0 hr 34 min 34 sec) 
Heartbeat CPU 0 instructions: 990000000 cycles: 767516286 heartbeat IPC: 1.39472 cumulative IPC: 1.22057 (Simulation time: 0 hr 34 min 56 sec) 
Heartbeat CPU 0 instructions: 1000000000 cycles: 774348121 heartbeat IPC: 1.46374 cumulative IPC: 1.22282 (Simulation time: 0 hr 35 min 17 sec) 
Heartbeat CPU 0 instructions: 1010000000 cycles: 780312937 heartbeat IPC: 1.6765 cumulative IPC: 1.22647 (Simulation time: 0 hr 35 min 37 sec) 
Heartbeat CPU 0 instructions: 1020000003 cycles: 787245605 heartbeat IPC: 1.44245 cumulative IPC: 1.22847 (Simulation time: 0 hr 35 min 58 sec) 
Heartbeat CPU 0 instructions: 1030000000 cycles: 793683417 heartbeat IPC: 1.55332 cumulative IPC: 1.23124 (Simulation time: 0 hr 36 min 20 sec) 
Heartbeat CPU 0 instructions: 1040000000 cycles: 800399364 heartbeat IPC: 1.48899 cumulative IPC: 1.23351 (Simulation time: 0 hr 36 min 42 sec) 
Heartbeat CPU 0 instructions: 1050000000 cycles: 807450556 heartbeat IPC: 1.4182 cumulative IPC: 1.2352 (Simulation time: 0 hr 37 min 3 sec) 
Heartbeat CPU 0 instructions: 1060000001 cycles: 814718102 heartbeat IPC: 1.37598 cumulative IPC: 1.23652 (Simulation time: 0 hr 37 min 24 sec) 
Heartbeat CPU 0 instructions: 1070000000 cycles: 821873684 heartbeat IPC: 1.39751 cumulative IPC: 1.23799 (Simulation time: 0 hr 37 min 45 sec) 
Heartbeat CPU 0 instructions: 1080000000 cycles: 828393528 heartbeat IPC: 1.53378 cumulative IPC: 1.24043 (Simulation time: 0 hr 38 min 5 sec) 
Heartbeat CPU 0 instructions: 1090000001 cycles: 835130391 heartbeat IPC: 1.48437 cumulative IPC: 1.2425 (Simulation time: 0 hr 38 min 26 sec) 
Heartbeat CPU 0 instructions: 1100000000 cycles: 841309048 heartbeat IPC: 1.61847 cumulative IPC: 1.24539 (Simulation time: 0 hr 38 min 48 sec) 
Finished CPU 0 instructions: 1000000002 cycles: 802962489 cumulative IPC: 1.24539 (Simulation time: 0 hr 38 min 48 sec) 

ChampSim completed all CPUs

Region of Interest Statistics

CPU 0 cumulative IPC: 1.24539 instructions: 1000000002 cycles: 802962489
L1D TOTAL     ACCESS:  370658989  HIT:  369253463  MISS:    1405526
L1D LOAD      ACCESS:  163373560  HIT:  162080384  MISS:    1293176
L1D RFO       ACCESS:  207285429  HIT:  207173079  MISS:     112350
L1D PREFETCH  ACCESS:          0  HIT:          0  MISS:          0
L1D WRITEBACK ACCESS:          0  HIT:          0  MISS:          0
L1D PREFETCH  REQUESTED:          0  ISSUED:          0  USEFUL:          0  USELESS:          0
L1D AVERAGE MISS LATENCY: 57.7668 cycles
L1I TOTAL     ACCESS:  158614433  HIT:  156964689  MISS:    1649744
L1I LOAD      ACCESS:  158614433  HIT:  156964689  MISS:    1649744
L1I RFO       ACCESS:          0  HIT:          0  MISS:          0
L1I PREFETCH  ACCESS:          0  HIT:          0  MISS:          0
L1I WRITEBACK ACCESS:          0  HIT:          0  MISS:          0
L1I PREFETCH  REQUESTED:          0  ISSUED:          0  USEFUL:          0  USELESS:          0
L1I AVERAGE MISS LATENCY: 16.8395 cycles
L2C TOTAL     ACCESS:    3423732  HIT:    2757759  MISS:     665973
L2C LOAD      ACCESS:    2942796  HIT:    2322115  MISS:     620681
L2C RFO       ACCESS:     112344  HIT:      71319  MISS:      41025
L2C PREFETCH  ACCESS:          0  HIT:          0  MISS:          0
L2C WRITEBACK ACCESS:     368592  HIT:     364325  MISS:       4267
L2C PREFETCH  REQUESTED:          0  ISSUED:          0  USEFUL:          0  USELESS:          0
L2C AVERAGE MISS LATENCY: 107.79 cycles
LLC TOTAL     ACCESS:     794782  HIT:     484956  MISS:     309826
LLC LOAD      ACCESS:     620675  HIT:     353394  MISS:     267281
LLC RFO       ACCESS:      41023  HIT:      22158  MISS:      18865
LLC PREFETCH  ACCESS:          0  HIT:          0  MISS:          0
LLC WRITEBACK ACCESS:     133084  HIT:     109404  MISS:      23680
LLC PREFETCH  REQUESTED:          0  ISSUED:          0  USEFUL:          0  USELESS:          0
LLC AVERAGE MISS LATENCY: 145.686 cycles
Major fault: 0 Minor fault: 6011
==============================
Perceptron RRIP Stats:
   Num Updates:          20652
   Num Primary Trains:   1198
   Num Secondary Trains: 1255
==============================
primary_perceptron #0: -2 2 0 -2 0 0 0 -2 2 -2 -2 2 -2 0 2 -14 
secondary_perceptron #0: -5 5 1 -3 1 3 -1 -3 1 3 -3 -1 -1 1 1 1 1 1 5 1 -15 


DRAM Statistics
 CHANNEL 0
 RQ ROW_BUFFER_HIT:      78705  ROW_BUFFER_MISS:     207440
 DBUS_CONGESTED:      20630
 WQ ROW_BUFFER_HIT:      14941  ROW_BUFFER_MISS:      34240  FULL:          0

 AVG_CONGESTED_CYCLE: 6

CPU 0 Branch Prediction Accuracy: 97.1732% MPKI: 4.19273 Average ROB Occupancy at Mispredict: 78.3914

Branch types
NOT_BRANCH: 851679750 85.168%
BRANCH_DIRECT_JUMP: 20351476 2.03515%
BRANCH_INDIRECT: 7090827 0.709083%
BRANCH_CONDITIONAL: 105247556 10.5248%
BRANCH_DIRECT_CALL: 7012686 0.701269%
BRANCH_INDIRECT_CALL: 802358 0.0802358%
BRANCH_RETURN: 7815043 0.781504%
BRANCH_OTHER: 0 0%

