
*** ChampSim Multicore Out-of-Order Simulator ***

Warmup Instructions: 100000000
Simulation Instructions: 1000000000
Number of CPUs: 1
LLC sets: 2048
LLC ways: 16
Off-chip DRAM Size: 4096 MB Channels: 1 Width: 64-bit Data Rate: 3200 MT/s

CPU 0 runs /scratch/user/kevin.weston/dpc3-traces/600.champsimtrace.xz
CPU 0 Bimodal branch predictor
Initialize SRRIP state
Heartbeat CPU 0 instructions: 10000000 cycles: 3913880 heartbeat IPC: 2.55501 cumulative IPC: 2.55501 (Simulation time: 0 hr 0 min 24 sec) 
Heartbeat CPU 0 instructions: 20000000 cycles: 7798820 heartbeat IPC: 2.57404 cumulative IPC: 2.56449 (Simulation time: 0 hr 0 min 48 sec) 
Heartbeat CPU 0 instructions: 30000002 cycles: 11687098 heartbeat IPC: 2.57183 cumulative IPC: 2.56693 (Simulation time: 0 hr 1 min 13 sec) 
Heartbeat CPU 0 instructions: 40000000 cycles: 15534060 heartbeat IPC: 2.59945 cumulative IPC: 2.57499 (Simulation time: 0 hr 1 min 37 sec) 
Heartbeat CPU 0 instructions: 50000003 cycles: 19429668 heartbeat IPC: 2.56699 cumulative IPC: 2.57338 (Simulation time: 0 hr 2 min 1 sec) 
Heartbeat CPU 0 instructions: 60000003 cycles: 23343362 heartbeat IPC: 2.55513 cumulative IPC: 2.57032 (Simulation time: 0 hr 2 min 26 sec) 
Heartbeat CPU 0 instructions: 70000003 cycles: 26923794 heartbeat IPC: 2.79296 cumulative IPC: 2.59993 (Simulation time: 0 hr 2 min 50 sec) 
Heartbeat CPU 0 instructions: 80000001 cycles: 30549858 heartbeat IPC: 2.75781 cumulative IPC: 2.61867 (Simulation time: 0 hr 3 min 15 sec) 
Heartbeat CPU 0 instructions: 90000000 cycles: 34402344 heartbeat IPC: 2.59573 cumulative IPC: 2.6161 (Simulation time: 0 hr 3 min 39 sec) 
Heartbeat CPU 0 instructions: 100000000 cycles: 38346571 heartbeat IPC: 2.53535 cumulative IPC: 2.6078 (Simulation time: 0 hr 4 min 3 sec) 

Warmup complete CPU 0 instructions: 100000004 cycles: 38346572 (Simulation time: 0 hr 4 min 3 sec) 

Heartbeat CPU 0 instructions: 110000000 cycles: 44833031 heartbeat IPC: 1.54167 cumulative IPC: 1.54167 (Simulation time: 0 hr 4 min 22 sec) 
Heartbeat CPU 0 instructions: 120000002 cycles: 51318560 heartbeat IPC: 1.54189 cumulative IPC: 1.54178 (Simulation time: 0 hr 4 min 43 sec) 
Heartbeat CPU 0 instructions: 130000000 cycles: 58732622 heartbeat IPC: 1.34879 cumulative IPC: 1.47159 (Simulation time: 0 hr 5 min 3 sec) 
Heartbeat CPU 0 instructions: 140000003 cycles: 66090447 heartbeat IPC: 1.3591 cumulative IPC: 1.44176 (Simulation time: 0 hr 5 min 23 sec) 
Heartbeat CPU 0 instructions: 150000000 cycles: 72788261 heartbeat IPC: 1.49302 cumulative IPC: 1.45173 (Simulation time: 0 hr 5 min 43 sec) 
Heartbeat CPU 0 instructions: 160000001 cycles: 79097961 heartbeat IPC: 1.58486 cumulative IPC: 1.47234 (Simulation time: 0 hr 6 min 2 sec) 
Heartbeat CPU 0 instructions: 170000002 cycles: 86184756 heartbeat IPC: 1.41108 cumulative IPC: 1.46327 (Simulation time: 0 hr 6 min 22 sec) 
Heartbeat CPU 0 instructions: 180000000 cycles: 92606966 heartbeat IPC: 1.5571 cumulative IPC: 1.47437 (Simulation time: 0 hr 6 min 41 sec) 
Heartbeat CPU 0 instructions: 190000003 cycles: 99010542 heartbeat IPC: 1.56163 cumulative IPC: 1.48358 (Simulation time: 0 hr 7 min 4 sec) 
Heartbeat CPU 0 instructions: 200000000 cycles: 106703475 heartbeat IPC: 1.29989 cumulative IPC: 1.46291 (Simulation time: 0 hr 7 min 25 sec) 
Heartbeat CPU 0 instructions: 210000001 cycles: 114161458 heartbeat IPC: 1.34085 cumulative IPC: 1.4509 (Simulation time: 0 hr 7 min 45 sec) 
Heartbeat CPU 0 instructions: 220000000 cycles: 121562587 heartbeat IPC: 1.35115 cumulative IPC: 1.44203 (Simulation time: 0 hr 8 min 6 sec) 
Heartbeat CPU 0 instructions: 230000000 cycles: 128946469 heartbeat IPC: 1.3543 cumulative IPC: 1.43488 (Simulation time: 0 hr 8 min 27 sec) 
Heartbeat CPU 0 instructions: 240000003 cycles: 136250773 heartbeat IPC: 1.36906 cumulative IPC: 1.42997 (Simulation time: 0 hr 8 min 47 sec) 
Heartbeat CPU 0 instructions: 250000002 cycles: 142362901 heartbeat IPC: 1.63609 cumulative IPC: 1.44208 (Simulation time: 0 hr 9 min 6 sec) 
Heartbeat CPU 0 instructions: 260000002 cycles: 149592013 heartbeat IPC: 1.3833 cumulative IPC: 1.43826 (Simulation time: 0 hr 9 min 27 sec) 
Heartbeat CPU 0 instructions: 270000001 cycles: 156485936 heartbeat IPC: 1.45055 cumulative IPC: 1.43898 (Simulation time: 0 hr 9 min 48 sec) 
Heartbeat CPU 0 instructions: 280000002 cycles: 163024236 heartbeat IPC: 1.52945 cumulative IPC: 1.44372 (Simulation time: 0 hr 10 min 9 sec) 
Heartbeat CPU 0 instructions: 290000001 cycles: 170320190 heartbeat IPC: 1.37062 cumulative IPC: 1.43968 (Simulation time: 0 hr 10 min 29 sec) 
Heartbeat CPU 0 instructions: 300000000 cycles: 177922321 heartbeat IPC: 1.31542 cumulative IPC: 1.43291 (Simulation time: 0 hr 10 min 50 sec) 
Heartbeat CPU 0 instructions: 310000003 cycles: 185383190 heartbeat IPC: 1.34033 cumulative IPC: 1.42822 (Simulation time: 0 hr 11 min 10 sec) 
Heartbeat CPU 0 instructions: 320000001 cycles: 192437718 heartbeat IPC: 1.41753 cumulative IPC: 1.42773 (Simulation time: 0 hr 11 min 30 sec) 
Heartbeat CPU 0 instructions: 330000000 cycles: 198768313 heartbeat IPC: 1.57963 cumulative IPC: 1.43372 (Simulation time: 0 hr 11 min 49 sec) 
Heartbeat CPU 0 instructions: 340000002 cycles: 205330405 heartbeat IPC: 1.5239 cumulative IPC: 1.43726 (Simulation time: 0 hr 12 min 10 sec) 
Heartbeat CPU 0 instructions: 350000000 cycles: 211982851 heartbeat IPC: 1.50321 cumulative IPC: 1.43979 (Simulation time: 0 hr 12 min 30 sec) 
Heartbeat CPU 0 instructions: 360000001 cycles: 219339455 heartbeat IPC: 1.35932 cumulative IPC: 1.43652 (Simulation time: 0 hr 12 min 50 sec) 
Heartbeat CPU 0 instructions: 370000003 cycles: 226065640 heartbeat IPC: 1.48673 cumulative IPC: 1.43832 (Simulation time: 0 hr 13 min 11 sec) 
Heartbeat CPU 0 instructions: 380000003 cycles: 233095103 heartbeat IPC: 1.42258 cumulative IPC: 1.43775 (Simulation time: 0 hr 13 min 32 sec) 
Heartbeat CPU 0 instructions: 390000001 cycles: 240508706 heartbeat IPC: 1.34887 cumulative IPC: 1.43449 (Simulation time: 0 hr 13 min 52 sec) 
Heartbeat CPU 0 instructions: 400000001 cycles: 247866390 heartbeat IPC: 1.35912 cumulative IPC: 1.43185 (Simulation time: 0 hr 14 min 13 sec) 
Heartbeat CPU 0 instructions: 410000000 cycles: 254737359 heartbeat IPC: 1.4554 cumulative IPC: 1.43259 (Simulation time: 0 hr 14 min 32 sec) 
Heartbeat CPU 0 instructions: 420000001 cycles: 261542293 heartbeat IPC: 1.46952 cumulative IPC: 1.43372 (Simulation time: 0 hr 14 min 52 sec) 
Heartbeat CPU 0 instructions: 430000000 cycles: 267832179 heartbeat IPC: 1.58985 cumulative IPC: 1.438 (Simulation time: 0 hr 15 min 14 sec) 
Heartbeat CPU 0 instructions: 440000000 cycles: 275060330 heartbeat IPC: 1.38348 cumulative IPC: 1.43633 (Simulation time: 0 hr 15 min 34 sec) 
Heartbeat CPU 0 instructions: 450000000 cycles: 281340669 heartbeat IPC: 1.59227 cumulative IPC: 1.44036 (Simulation time: 0 hr 15 min 55 sec) 
Heartbeat CPU 0 instructions: 460000002 cycles: 288530029 heartbeat IPC: 1.39094 cumulative IPC: 1.43894 (Simulation time: 0 hr 16 min 16 sec) 
Heartbeat CPU 0 instructions: 470000003 cycles: 299123950 heartbeat IPC: 0.943938 cumulative IPC: 1.41883 (Simulation time: 0 hr 16 min 37 sec) 
Heartbeat CPU 0 instructions: 480000003 cycles: 309413933 heartbeat IPC: 0.971819 cumulative IPC: 1.40187 (Simulation time: 0 hr 16 min 57 sec) 
Heartbeat CPU 0 instructions: 490000002 cycles: 316518104 heartbeat IPC: 1.40762 cumulative IPC: 1.40201 (Simulation time: 0 hr 17 min 16 sec) 
Heartbeat CPU 0 instructions: 500000001 cycles: 324863600 heartbeat IPC: 1.19825 cumulative IPC: 1.39608 (Simulation time: 0 hr 17 min 35 sec) 
Heartbeat CPU 0 instructions: 510000002 cycles: 335910832 heartbeat IPC: 0.905204 cumulative IPC: 1.37785 (Simulation time: 0 hr 17 min 53 sec) 
Heartbeat CPU 0 instructions: 520000003 cycles: 352047470 heartbeat IPC: 0.619708 cumulative IPC: 1.33885 (Simulation time: 0 hr 18 min 14 sec) 
Heartbeat CPU 0 instructions: 530000003 cycles: 366425130 heartbeat IPC: 0.695524 cumulative IPC: 1.31066 (Simulation time: 0 hr 18 min 34 sec) 
Heartbeat CPU 0 instructions: 540000002 cycles: 379716984 heartbeat IPC: 0.75234 cumulative IPC: 1.28892 (Simulation time: 0 hr 18 min 54 sec) 
Heartbeat CPU 0 instructions: 550000000 cycles: 396106007 heartbeat IPC: 0.610164 cumulative IPC: 1.25783 (Simulation time: 0 hr 19 min 15 sec) 
Heartbeat CPU 0 instructions: 560000001 cycles: 403814957 heartbeat IPC: 1.29719 cumulative IPC: 1.25866 (Simulation time: 0 hr 19 min 36 sec) 
Heartbeat CPU 0 instructions: 570000000 cycles: 411240222 heartbeat IPC: 1.34675 cumulative IPC: 1.26041 (Simulation time: 0 hr 19 min 56 sec) 
Heartbeat CPU 0 instructions: 580000000 cycles: 419331470 heartbeat IPC: 1.2359 cumulative IPC: 1.25989 (Simulation time: 0 hr 20 min 18 sec) 
Heartbeat CPU 0 instructions: 590000000 cycles: 427352498 heartbeat IPC: 1.24672 cumulative IPC: 1.25962 (Simulation time: 0 hr 20 min 38 sec) 
Heartbeat CPU 0 instructions: 600000001 cycles: 439645144 heartbeat IPC: 0.813495 cumulative IPC: 1.24596 (Simulation time: 0 hr 21 min 0 sec) 
Heartbeat CPU 0 instructions: 610000001 cycles: 455050146 heartbeat IPC: 0.64914 cumulative IPC: 1.22389 (Simulation time: 0 hr 21 min 21 sec) 
Heartbeat CPU 0 instructions: 620000002 cycles: 471112184 heartbeat IPC: 0.622586 cumulative IPC: 1.20157 (Simulation time: 0 hr 21 min 41 sec) 
Heartbeat CPU 0 instructions: 630000003 cycles: 482950327 heartbeat IPC: 0.844727 cumulative IPC: 1.19207 (Simulation time: 0 hr 22 min 3 sec) 
Heartbeat CPU 0 instructions: 640000000 cycles: 495816526 heartbeat IPC: 0.77723 cumulative IPC: 1.18041 (Simulation time: 0 hr 22 min 25 sec) 
Heartbeat CPU 0 instructions: 650000003 cycles: 512038073 heartbeat IPC: 0.616464 cumulative IPC: 1.16109 (Simulation time: 0 hr 22 min 47 sec) 
Heartbeat CPU 0 instructions: 660000000 cycles: 527204252 heartbeat IPC: 0.659362 cumulative IPC: 1.14553 (Simulation time: 0 hr 23 min 7 sec) 
Heartbeat CPU 0 instructions: 670000001 cycles: 537479510 heartbeat IPC: 0.973212 cumulative IPC: 1.14198 (Simulation time: 0 hr 23 min 28 sec) 
Heartbeat CPU 0 instructions: 680000000 cycles: 554894193 heartbeat IPC: 0.574228 cumulative IPC: 1.12284 (Simulation time: 0 hr 23 min 50 sec) 
Heartbeat CPU 0 instructions: 690000002 cycles: 570676685 heartbeat IPC: 0.633614 cumulative IPC: 1.10833 (Simulation time: 0 hr 24 min 11 sec) 
Heartbeat CPU 0 instructions: 700000001 cycles: 577809505 heartbeat IPC: 1.40197 cumulative IPC: 1.11222 (Simulation time: 0 hr 24 min 32 sec) 
Heartbeat CPU 0 instructions: 710000001 cycles: 584444784 heartbeat IPC: 1.5071 cumulative IPC: 1.11702 (Simulation time: 0 hr 24 min 53 sec) 
Heartbeat CPU 0 instructions: 720000001 cycles: 591037622 heartbeat IPC: 1.5168 cumulative IPC: 1.12178 (Simulation time: 0 hr 25 min 13 sec) 
Heartbeat CPU 0 instructions: 730000001 cycles: 596786793 heartbeat IPC: 1.73938 cumulative IPC: 1.12814 (Simulation time: 0 hr 25 min 37 sec) 
Heartbeat CPU 0 instructions: 740000000 cycles: 602904313 heartbeat IPC: 1.63465 cumulative IPC: 1.13363 (Simulation time: 0 hr 25 min 59 sec) 
Heartbeat CPU 0 instructions: 750000002 cycles: 609794350 heartbeat IPC: 1.45137 cumulative IPC: 1.13746 (Simulation time: 0 hr 26 min 20 sec) 
Heartbeat CPU 0 instructions: 760000000 cycles: 616874779 heartbeat IPC: 1.41234 cumulative IPC: 1.14083 (Simulation time: 0 hr 26 min 40 sec) 
Heartbeat CPU 0 instructions: 770000000 cycles: 623704673 heartbeat IPC: 1.46415 cumulative IPC: 1.1446 (Simulation time: 0 hr 27 min 1 sec) 
Heartbeat CPU 0 instructions: 780000003 cycles: 630164120 heartbeat IPC: 1.54812 cumulative IPC: 1.149 (Simulation time: 0 hr 27 min 24 sec) 
Heartbeat CPU 0 instructions: 790000000 cycles: 636924955 heartbeat IPC: 1.47911 cumulative IPC: 1.15273 (Simulation time: 0 hr 27 min 46 sec) 
Heartbeat CPU 0 instructions: 800000001 cycles: 643379238 heartbeat IPC: 1.54936 cumulative IPC: 1.15696 (Simulation time: 0 hr 28 min 8 sec) 
Heartbeat CPU 0 instructions: 810000000 cycles: 650418306 heartbeat IPC: 1.42064 cumulative IPC: 1.15999 (Simulation time: 0 hr 28 min 29 sec) 
Heartbeat CPU 0 instructions: 820000002 cycles: 656187760 heartbeat IPC: 1.73327 cumulative IPC: 1.16535 (Simulation time: 0 hr 28 min 48 sec) 
Heartbeat CPU 0 instructions: 830000002 cycles: 661819409 heartbeat IPC: 1.77568 cumulative IPC: 1.17086 (Simulation time: 0 hr 29 min 6 sec) 
Heartbeat CPU 0 instructions: 840000003 cycles: 668484954 heartbeat IPC: 1.50025 cumulative IPC: 1.17435 (Simulation time: 0 hr 29 min 26 sec) 
Heartbeat CPU 0 instructions: 850000000 cycles: 675650255 heartbeat IPC: 1.39561 cumulative IPC: 1.17683 (Simulation time: 0 hr 29 min 46 sec) 
Heartbeat CPU 0 instructions: 860000000 cycles: 682290668 heartbeat IPC: 1.50593 cumulative IPC: 1.18023 (Simulation time: 0 hr 30 min 7 sec) 
Heartbeat CPU 0 instructions: 870000001 cycles: 688968913 heartbeat IPC: 1.4974 cumulative IPC: 1.18348 (Simulation time: 0 hr 30 min 27 sec) 
Heartbeat CPU 0 instructions: 880000000 cycles: 695888082 heartbeat IPC: 1.44526 cumulative IPC: 1.18624 (Simulation time: 0 hr 30 min 48 sec) 
Heartbeat CPU 0 instructions: 890000001 cycles: 702933909 heartbeat IPC: 1.41928 cumulative IPC: 1.18871 (Simulation time: 0 hr 31 min 9 sec) 
Heartbeat CPU 0 instructions: 900000001 cycles: 709758776 heartbeat IPC: 1.46523 cumulative IPC: 1.19152 (Simulation time: 0 hr 31 min 30 sec) 
Heartbeat CPU 0 instructions: 910000001 cycles: 715705385 heartbeat IPC: 1.68163 cumulative IPC: 1.19582 (Simulation time: 0 hr 31 min 51 sec) 
Heartbeat CPU 0 instructions: 920000000 cycles: 722233015 heartbeat IPC: 1.53195 cumulative IPC: 1.19903 (Simulation time: 0 hr 32 min 12 sec) 
Heartbeat CPU 0 instructions: 930000003 cycles: 728633921 heartbeat IPC: 1.56228 cumulative IPC: 1.2024 (Simulation time: 0 hr 32 min 33 sec) 
Heartbeat CPU 0 instructions: 940000002 cycles: 735137158 heartbeat IPC: 1.5377 cumulative IPC: 1.20553 (Simulation time: 0 hr 32 min 55 sec) 
Heartbeat CPU 0 instructions: 950000002 cycles: 742095479 heartbeat IPC: 1.43713 cumulative IPC: 1.20782 (Simulation time: 0 hr 33 min 18 sec) 
Heartbeat CPU 0 instructions: 960000000 cycles: 749218611 heartbeat IPC: 1.40388 cumulative IPC: 1.20978 (Simulation time: 0 hr 33 min 39 sec) 
Heartbeat CPU 0 instructions: 970000000 cycles: 756350420 heartbeat IPC: 1.40217 cumulative IPC: 1.21169 (Simulation time: 0 hr 34 min 0 sec) 
Heartbeat CPU 0 instructions: 980000000 cycles: 763373467 heartbeat IPC: 1.42388 cumulative IPC: 1.21375 (Simulation time: 0 hr 34 min 20 sec) 
Heartbeat CPU 0 instructions: 990000000 cycles: 770543798 heartbeat IPC: 1.39464 cumulative IPC: 1.21552 (Simulation time: 0 hr 34 min 41 sec) 
Heartbeat CPU 0 instructions: 1000000000 cycles: 777377357 heartbeat IPC: 1.46337 cumulative IPC: 1.21781 (Simulation time: 0 hr 35 min 2 sec) 
Heartbeat CPU 0 instructions: 1010000000 cycles: 783343575 heartbeat IPC: 1.6761 cumulative IPC: 1.22148 (Simulation time: 0 hr 35 min 22 sec) 
Heartbeat CPU 0 instructions: 1020000003 cycles: 790281231 heartbeat IPC: 1.44141 cumulative IPC: 1.22351 (Simulation time: 0 hr 35 min 43 sec) 
Heartbeat CPU 0 instructions: 1030000000 cycles: 796717779 heartbeat IPC: 1.55363 cumulative IPC: 1.22631 (Simulation time: 0 hr 36 min 5 sec) 
Heartbeat CPU 0 instructions: 1040000000 cycles: 803436338 heartbeat IPC: 1.48841 cumulative IPC: 1.22861 (Simulation time: 0 hr 36 min 27 sec) 
Heartbeat CPU 0 instructions: 1050000000 cycles: 810487856 heartbeat IPC: 1.41813 cumulative IPC: 1.23034 (Simulation time: 0 hr 36 min 48 sec) 
Heartbeat CPU 0 instructions: 1060000001 cycles: 817777408 heartbeat IPC: 1.37183 cumulative IPC: 1.23167 (Simulation time: 0 hr 37 min 10 sec) 
Heartbeat CPU 0 instructions: 1070000000 cycles: 824997817 heartbeat IPC: 1.38496 cumulative IPC: 1.23308 (Simulation time: 0 hr 37 min 30 sec) 
Heartbeat CPU 0 instructions: 1080000000 cycles: 831532391 heartbeat IPC: 1.53032 cumulative IPC: 1.23552 (Simulation time: 0 hr 37 min 51 sec) 
Heartbeat CPU 0 instructions: 1090000001 cycles: 838270886 heartbeat IPC: 1.48401 cumulative IPC: 1.23762 (Simulation time: 0 hr 38 min 12 sec) 
Heartbeat CPU 0 instructions: 1100000000 cycles: 844449891 heartbeat IPC: 1.61838 cumulative IPC: 1.24054 (Simulation time: 0 hr 38 min 34 sec) 
Finished CPU 0 instructions: 1000000002 cycles: 806103330 cumulative IPC: 1.24054 (Simulation time: 0 hr 38 min 34 sec) 

ChampSim completed all CPUs

Region of Interest Statistics

CPU 0 cumulative IPC: 1.24054 instructions: 1000000002 cycles: 806103330
L1D TOTAL     ACCESS:  370659019  HIT:  369253477  MISS:    1405542
L1D LOAD      ACCESS:  163372617  HIT:  162079438  MISS:    1293179
L1D RFO       ACCESS:  207286402  HIT:  207174039  MISS:     112363
L1D PREFETCH  ACCESS:          0  HIT:          0  MISS:          0
L1D WRITEBACK ACCESS:          0  HIT:          0  MISS:          0
L1D PREFETCH  REQUESTED:          0  ISSUED:          0  USEFUL:          0  USELESS:          0
L1D AVERAGE MISS LATENCY: 60.4489 cycles
L1I TOTAL     ACCESS:  158614699  HIT:  156964951  MISS:    1649748
L1I LOAD      ACCESS:  158614699  HIT:  156964951  MISS:    1649748
L1I RFO       ACCESS:          0  HIT:          0  MISS:          0
L1I PREFETCH  ACCESS:          0  HIT:          0  MISS:          0
L1I WRITEBACK ACCESS:          0  HIT:          0  MISS:          0
L1I PREFETCH  REQUESTED:          0  ISSUED:          0  USEFUL:          0  USELESS:          0
L1I AVERAGE MISS LATENCY: 16.8477 cycles
L2C TOTAL     ACCESS:    3423752  HIT:    2774693  MISS:     649059
L2C LOAD      ACCESS:    2942800  HIT:    2337005  MISS:     605795
L2C RFO       ACCESS:     112356  HIT:      72650  MISS:      39706
L2C PREFETCH  ACCESS:          0  HIT:          0  MISS:          0
L2C WRITEBACK ACCESS:     368596  HIT:     365038  MISS:       3558
L2C PREFETCH  REQUESTED:          0  ISSUED:          0  USEFUL:          0  USELESS:          0
L2C AVERAGE MISS LATENCY: 116.438 cycles
LLC TOTAL     ACCESS:     777655  HIT:     462306  MISS:     315349
LLC LOAD      ACCESS:     605785  HIT:     309868  MISS:     295917
LLC RFO       ACCESS:      39705  HIT:      20450  MISS:      19255
LLC PREFETCH  ACCESS:          0  HIT:          0  MISS:          0
LLC WRITEBACK ACCESS:     132165  HIT:     131988  MISS:        177
LLC PREFETCH  REQUESTED:          0  ISSUED:          0  USEFUL:          0  USELESS:          0
LLC AVERAGE MISS LATENCY: 157.282 cycles
Major fault: 0 Minor fault: 6011

DRAM Statistics
 CHANNEL 0
 RQ ROW_BUFFER_HIT:      87228  ROW_BUFFER_MISS:     227943
 DBUS_CONGESTED:      22621
 WQ ROW_BUFFER_HIT:      17024  ROW_BUFFER_MISS:      31693  FULL:          0

 AVG_CONGESTED_CYCLE: 6

CPU 0 Branch Prediction Accuracy: 97.1732% MPKI: 4.19273 Average ROB Occupancy at Mispredict: 78.4099

Branch types
NOT_BRANCH: 851679750 85.168%
BRANCH_DIRECT_JUMP: 20351476 2.03515%
BRANCH_INDIRECT: 7090827 0.709083%
BRANCH_CONDITIONAL: 105247556 10.5248%
BRANCH_DIRECT_CALL: 7012686 0.701269%
BRANCH_INDIRECT_CALL: 802358 0.0802358%
BRANCH_RETURN: 7815043 0.781504%
BRANCH_OTHER: 0 0%

