
*** ChampSim Multicore Out-of-Order Simulator ***

Warmup Instructions: 100000000
Simulation Instructions: 1000000000
Number of CPUs: 1
LLC sets: 2048
LLC ways: 16
Off-chip DRAM Size: 4096 MB Channels: 1 Width: 64-bit Data Rate: 3200 MT/s

CPU 0 runs /scratch/user/kevin.weston/dpc3-traces/600.champsimtrace.xz
CPU 0 Bimodal branch predictor
Heartbeat CPU 0 instructions: 10000000 cycles: 3913880 heartbeat IPC: 2.55501 cumulative IPC: 2.55501 (Simulation time: 0 hr 0 min 24 sec) 
Heartbeat CPU 0 instructions: 20000000 cycles: 7798820 heartbeat IPC: 2.57404 cumulative IPC: 2.56449 (Simulation time: 0 hr 0 min 48 sec) 
Heartbeat CPU 0 instructions: 30000002 cycles: 11687098 heartbeat IPC: 2.57183 cumulative IPC: 2.56693 (Simulation time: 0 hr 1 min 13 sec) 
Heartbeat CPU 0 instructions: 40000000 cycles: 15534060 heartbeat IPC: 2.59945 cumulative IPC: 2.57499 (Simulation time: 0 hr 1 min 37 sec) 
Heartbeat CPU 0 instructions: 50000003 cycles: 19429668 heartbeat IPC: 2.56699 cumulative IPC: 2.57338 (Simulation time: 0 hr 2 min 1 sec) 
Heartbeat CPU 0 instructions: 60000003 cycles: 23343362 heartbeat IPC: 2.55513 cumulative IPC: 2.57032 (Simulation time: 0 hr 2 min 25 sec) 
Heartbeat CPU 0 instructions: 70000003 cycles: 26923794 heartbeat IPC: 2.79296 cumulative IPC: 2.59993 (Simulation time: 0 hr 2 min 50 sec) 
Heartbeat CPU 0 instructions: 80000001 cycles: 30549858 heartbeat IPC: 2.75781 cumulative IPC: 2.61867 (Simulation time: 0 hr 3 min 14 sec) 
Heartbeat CPU 0 instructions: 90000000 cycles: 34402344 heartbeat IPC: 2.59573 cumulative IPC: 2.6161 (Simulation time: 0 hr 3 min 38 sec) 
Heartbeat CPU 0 instructions: 100000000 cycles: 38346571 heartbeat IPC: 2.53535 cumulative IPC: 2.6078 (Simulation time: 0 hr 4 min 3 sec) 

Warmup complete CPU 0 instructions: 100000004 cycles: 38346572 (Simulation time: 0 hr 4 min 3 sec) 

Heartbeat CPU 0 instructions: 110000000 cycles: 44833031 heartbeat IPC: 1.54167 cumulative IPC: 1.54167 (Simulation time: 0 hr 4 min 22 sec) 
Heartbeat CPU 0 instructions: 120000002 cycles: 51318560 heartbeat IPC: 1.54189 cumulative IPC: 1.54178 (Simulation time: 0 hr 4 min 42 sec) 
Heartbeat CPU 0 instructions: 130000000 cycles: 58732622 heartbeat IPC: 1.34879 cumulative IPC: 1.47159 (Simulation time: 0 hr 5 min 3 sec) 
Heartbeat CPU 0 instructions: 140000003 cycles: 66090447 heartbeat IPC: 1.3591 cumulative IPC: 1.44176 (Simulation time: 0 hr 5 min 22 sec) 
Heartbeat CPU 0 instructions: 150000000 cycles: 72788261 heartbeat IPC: 1.49302 cumulative IPC: 1.45173 (Simulation time: 0 hr 5 min 42 sec) 
Heartbeat CPU 0 instructions: 160000001 cycles: 79097961 heartbeat IPC: 1.58486 cumulative IPC: 1.47234 (Simulation time: 0 hr 6 min 1 sec) 
Heartbeat CPU 0 instructions: 170000002 cycles: 86184756 heartbeat IPC: 1.41108 cumulative IPC: 1.46327 (Simulation time: 0 hr 6 min 21 sec) 
Heartbeat CPU 0 instructions: 180000000 cycles: 92606966 heartbeat IPC: 1.5571 cumulative IPC: 1.47437 (Simulation time: 0 hr 6 min 41 sec) 
Heartbeat CPU 0 instructions: 190000003 cycles: 99010542 heartbeat IPC: 1.56163 cumulative IPC: 1.48358 (Simulation time: 0 hr 7 min 4 sec) 
Heartbeat CPU 0 instructions: 200000000 cycles: 106703475 heartbeat IPC: 1.29989 cumulative IPC: 1.46291 (Simulation time: 0 hr 7 min 24 sec) 
Heartbeat CPU 0 instructions: 210000001 cycles: 114161458 heartbeat IPC: 1.34085 cumulative IPC: 1.4509 (Simulation time: 0 hr 7 min 44 sec) 
Heartbeat CPU 0 instructions: 220000000 cycles: 121562587 heartbeat IPC: 1.35115 cumulative IPC: 1.44203 (Simulation time: 0 hr 8 min 5 sec) 
Heartbeat CPU 0 instructions: 230000000 cycles: 128946469 heartbeat IPC: 1.3543 cumulative IPC: 1.43488 (Simulation time: 0 hr 8 min 26 sec) 
Heartbeat CPU 0 instructions: 240000003 cycles: 136250773 heartbeat IPC: 1.36906 cumulative IPC: 1.42997 (Simulation time: 0 hr 8 min 46 sec) 
Heartbeat CPU 0 instructions: 250000002 cycles: 142362901 heartbeat IPC: 1.63609 cumulative IPC: 1.44208 (Simulation time: 0 hr 9 min 5 sec) 
Heartbeat CPU 0 instructions: 260000002 cycles: 149592013 heartbeat IPC: 1.3833 cumulative IPC: 1.43826 (Simulation time: 0 hr 9 min 25 sec) 
Heartbeat CPU 0 instructions: 270000001 cycles: 156485936 heartbeat IPC: 1.45055 cumulative IPC: 1.43898 (Simulation time: 0 hr 9 min 46 sec) 
Heartbeat CPU 0 instructions: 280000002 cycles: 163024236 heartbeat IPC: 1.52945 cumulative IPC: 1.44372 (Simulation time: 0 hr 10 min 7 sec) 
Heartbeat CPU 0 instructions: 290000001 cycles: 170320190 heartbeat IPC: 1.37062 cumulative IPC: 1.43968 (Simulation time: 0 hr 10 min 27 sec) 
Heartbeat CPU 0 instructions: 300000000 cycles: 177922321 heartbeat IPC: 1.31542 cumulative IPC: 1.43291 (Simulation time: 0 hr 10 min 48 sec) 
Heartbeat CPU 0 instructions: 310000003 cycles: 185383190 heartbeat IPC: 1.34033 cumulative IPC: 1.42822 (Simulation time: 0 hr 11 min 8 sec) 
Heartbeat CPU 0 instructions: 320000001 cycles: 192437718 heartbeat IPC: 1.41753 cumulative IPC: 1.42773 (Simulation time: 0 hr 11 min 28 sec) 
Heartbeat CPU 0 instructions: 330000000 cycles: 198768313 heartbeat IPC: 1.57963 cumulative IPC: 1.43372 (Simulation time: 0 hr 11 min 47 sec) 
Heartbeat CPU 0 instructions: 340000002 cycles: 205330405 heartbeat IPC: 1.5239 cumulative IPC: 1.43726 (Simulation time: 0 hr 12 min 8 sec) 
Heartbeat CPU 0 instructions: 350000000 cycles: 211982851 heartbeat IPC: 1.50321 cumulative IPC: 1.43979 (Simulation time: 0 hr 12 min 28 sec) 
Heartbeat CPU 0 instructions: 360000001 cycles: 219339555 heartbeat IPC: 1.3593 cumulative IPC: 1.43652 (Simulation time: 0 hr 12 min 48 sec) 
Heartbeat CPU 0 instructions: 370000003 cycles: 226065840 heartbeat IPC: 1.48671 cumulative IPC: 1.43832 (Simulation time: 0 hr 13 min 9 sec) 
Heartbeat CPU 0 instructions: 380000003 cycles: 233095496 heartbeat IPC: 1.42254 cumulative IPC: 1.43775 (Simulation time: 0 hr 13 min 30 sec) 
Heartbeat CPU 0 instructions: 390000001 cycles: 240509399 heartbeat IPC: 1.34882 cumulative IPC: 1.43449 (Simulation time: 0 hr 13 min 50 sec) 
Heartbeat CPU 0 instructions: 400000001 cycles: 247867275 heartbeat IPC: 1.35909 cumulative IPC: 1.43184 (Simulation time: 0 hr 14 min 10 sec) 
Heartbeat CPU 0 instructions: 410000000 cycles: 254738344 heartbeat IPC: 1.45538 cumulative IPC: 1.43259 (Simulation time: 0 hr 14 min 30 sec) 
Heartbeat CPU 0 instructions: 420000001 cycles: 261543378 heartbeat IPC: 1.4695 cumulative IPC: 1.43371 (Simulation time: 0 hr 14 min 50 sec) 
Heartbeat CPU 0 instructions: 430000000 cycles: 267833264 heartbeat IPC: 1.58985 cumulative IPC: 1.43799 (Simulation time: 0 hr 15 min 11 sec) 
Heartbeat CPU 0 instructions: 440000000 cycles: 275061809 heartbeat IPC: 1.3834 cumulative IPC: 1.43632 (Simulation time: 0 hr 15 min 32 sec) 
Heartbeat CPU 0 instructions: 450000000 cycles: 281342148 heartbeat IPC: 1.59227 cumulative IPC: 1.44036 (Simulation time: 0 hr 15 min 53 sec) 
Heartbeat CPU 0 instructions: 460000002 cycles: 288531808 heartbeat IPC: 1.39089 cumulative IPC: 1.43893 (Simulation time: 0 hr 16 min 13 sec) 
Heartbeat CPU 0 instructions: 470000003 cycles: 299138004 heartbeat IPC: 0.942845 cumulative IPC: 1.41876 (Simulation time: 0 hr 16 min 34 sec) 
Heartbeat CPU 0 instructions: 480000003 cycles: 309435232 heartbeat IPC: 0.971135 cumulative IPC: 1.40176 (Simulation time: 0 hr 16 min 54 sec) 
Heartbeat CPU 0 instructions: 490000002 cycles: 316540987 heartbeat IPC: 1.40731 cumulative IPC: 1.4019 (Simulation time: 0 hr 17 min 13 sec) 
Heartbeat CPU 0 instructions: 500000001 cycles: 324897609 heartbeat IPC: 1.19666 cumulative IPC: 1.39591 (Simulation time: 0 hr 17 min 32 sec) 
Heartbeat CPU 0 instructions: 510000002 cycles: 335970966 heartbeat IPC: 0.903069 cumulative IPC: 1.37758 (Simulation time: 0 hr 17 min 50 sec) 
Heartbeat CPU 0 instructions: 520000003 cycles: 352163610 heartbeat IPC: 0.617564 cumulative IPC: 1.33836 (Simulation time: 0 hr 18 min 11 sec) 
Heartbeat CPU 0 instructions: 530000003 cycles: 366541259 heartbeat IPC: 0.695524 cumulative IPC: 1.3102 (Simulation time: 0 hr 18 min 31 sec) 
Heartbeat CPU 0 instructions: 540000002 cycles: 379867532 heartbeat IPC: 0.750397 cumulative IPC: 1.28835 (Simulation time: 0 hr 18 min 51 sec) 
Heartbeat CPU 0 instructions: 550000000 cycles: 396199188 heartbeat IPC: 0.612308 cumulative IPC: 1.2575 (Simulation time: 0 hr 19 min 12 sec) 
Heartbeat CPU 0 instructions: 560000001 cycles: 403916038 heartbeat IPC: 1.29587 cumulative IPC: 1.25831 (Simulation time: 0 hr 19 min 33 sec) 
Heartbeat CPU 0 instructions: 570000000 cycles: 411345452 heartbeat IPC: 1.346 cumulative IPC: 1.26006 (Simulation time: 0 hr 19 min 53 sec) 
Heartbeat CPU 0 instructions: 580000000 cycles: 419435511 heartbeat IPC: 1.23608 cumulative IPC: 1.25955 (Simulation time: 0 hr 20 min 14 sec) 
Heartbeat CPU 0 instructions: 590000000 cycles: 427455839 heartbeat IPC: 1.24683 cumulative IPC: 1.25929 (Simulation time: 0 hr 20 min 35 sec) 
Heartbeat CPU 0 instructions: 600000001 cycles: 439970610 heartbeat IPC: 0.799056 cumulative IPC: 1.24495 (Simulation time: 0 hr 20 min 56 sec) 
Heartbeat CPU 0 instructions: 610000001 cycles: 455486737 heartbeat IPC: 0.644491 cumulative IPC: 1.22261 (Simulation time: 0 hr 21 min 18 sec) 
Heartbeat CPU 0 instructions: 620000002 cycles: 471581100 heartbeat IPC: 0.621336 cumulative IPC: 1.20027 (Simulation time: 0 hr 21 min 38 sec) 
Heartbeat CPU 0 instructions: 630000003 cycles: 483471646 heartbeat IPC: 0.841004 cumulative IPC: 1.19068 (Simulation time: 0 hr 22 min 0 sec) 
Heartbeat CPU 0 instructions: 640000000 cycles: 496592563 heartbeat IPC: 0.762142 cumulative IPC: 1.17841 (Simulation time: 0 hr 22 min 22 sec) 
Heartbeat CPU 0 instructions: 650000003 cycles: 513043456 heartbeat IPC: 0.60787 cumulative IPC: 1.15863 (Simulation time: 0 hr 22 min 43 sec) 
Heartbeat CPU 0 instructions: 660000000 cycles: 528317111 heartbeat IPC: 0.654722 cumulative IPC: 1.14293 (Simulation time: 0 hr 23 min 4 sec) 
Heartbeat CPU 0 instructions: 670000001 cycles: 538661616 heartbeat IPC: 0.966697 cumulative IPC: 1.13928 (Simulation time: 0 hr 23 min 25 sec) 
Heartbeat CPU 0 instructions: 680000000 cycles: 556583110 heartbeat IPC: 0.557989 cumulative IPC: 1.11918 (Simulation time: 0 hr 23 min 47 sec) 
Heartbeat CPU 0 instructions: 690000002 cycles: 572479255 heartbeat IPC: 0.629083 cumulative IPC: 1.10459 (Simulation time: 0 hr 24 min 8 sec) 
Heartbeat CPU 0 instructions: 700000001 cycles: 579612938 heartbeat IPC: 1.4018 cumulative IPC: 1.10851 (Simulation time: 0 hr 24 min 28 sec) 
Heartbeat CPU 0 instructions: 710000001 cycles: 586247753 heartbeat IPC: 1.5072 cumulative IPC: 1.11334 (Simulation time: 0 hr 24 min 50 sec) 
Heartbeat CPU 0 instructions: 720000001 cycles: 592842512 heartbeat IPC: 1.51636 cumulative IPC: 1.11813 (Simulation time: 0 hr 25 min 10 sec) 
Heartbeat CPU 0 instructions: 730000001 cycles: 598591689 heartbeat IPC: 1.73938 cumulative IPC: 1.12451 (Simulation time: 0 hr 25 min 33 sec) 
Heartbeat CPU 0 instructions: 740000000 cycles: 604711152 heartbeat IPC: 1.63413 cumulative IPC: 1.13001 (Simulation time: 0 hr 25 min 56 sec) 
Heartbeat CPU 0 instructions: 750000002 cycles: 611604180 heartbeat IPC: 1.45074 cumulative IPC: 1.13387 (Simulation time: 0 hr 26 min 17 sec) 
Heartbeat CPU 0 instructions: 760000000 cycles: 618688109 heartbeat IPC: 1.41165 cumulative IPC: 1.13726 (Simulation time: 0 hr 26 min 37 sec) 
Heartbeat CPU 0 instructions: 770000000 cycles: 625520782 heartbeat IPC: 1.46356 cumulative IPC: 1.14106 (Simulation time: 0 hr 26 min 58 sec) 
Heartbeat CPU 0 instructions: 780000003 cycles: 631980261 heartbeat IPC: 1.54811 cumulative IPC: 1.14549 (Simulation time: 0 hr 27 min 20 sec) 
Heartbeat CPU 0 instructions: 790000000 cycles: 638744817 heartbeat IPC: 1.47829 cumulative IPC: 1.14924 (Simulation time: 0 hr 27 min 41 sec) 
Heartbeat CPU 0 instructions: 800000001 cycles: 645200608 heartbeat IPC: 1.549 cumulative IPC: 1.15349 (Simulation time: 0 hr 28 min 2 sec) 
Heartbeat CPU 0 instructions: 810000000 cycles: 652241465 heartbeat IPC: 1.42028 cumulative IPC: 1.15655 (Simulation time: 0 hr 28 min 23 sec) 
Heartbeat CPU 0 instructions: 820000002 cycles: 658010760 heartbeat IPC: 1.73331 cumulative IPC: 1.16192 (Simulation time: 0 hr 28 min 42 sec) 
Heartbeat CPU 0 instructions: 830000002 cycles: 663642516 heartbeat IPC: 1.77565 cumulative IPC: 1.16745 (Simulation time: 0 hr 29 min 0 sec) 
Heartbeat CPU 0 instructions: 840000003 cycles: 670308926 heartbeat IPC: 1.50006 cumulative IPC: 1.17096 (Simulation time: 0 hr 29 min 20 sec) 
Heartbeat CPU 0 instructions: 850000000 cycles: 677478605 heartbeat IPC: 1.39476 cumulative IPC: 1.17347 (Simulation time: 0 hr 29 min 39 sec) 
Heartbeat CPU 0 instructions: 860000000 cycles: 684118611 heartbeat IPC: 1.50602 cumulative IPC: 1.17689 (Simulation time: 0 hr 30 min 0 sec) 
Heartbeat CPU 0 instructions: 870000001 cycles: 690799272 heartbeat IPC: 1.49686 cumulative IPC: 1.18016 (Simulation time: 0 hr 30 min 20 sec) 
Heartbeat CPU 0 instructions: 880000000 cycles: 697720661 heartbeat IPC: 1.4448 cumulative IPC: 1.18294 (Simulation time: 0 hr 30 min 41 sec) 
Heartbeat CPU 0 instructions: 890000001 cycles: 704768882 heartbeat IPC: 1.4188 cumulative IPC: 1.18543 (Simulation time: 0 hr 31 min 2 sec) 
Heartbeat CPU 0 instructions: 900000001 cycles: 711597678 heartbeat IPC: 1.46439 cumulative IPC: 1.18826 (Simulation time: 0 hr 31 min 22 sec) 
Heartbeat CPU 0 instructions: 910000001 cycles: 717545170 heartbeat IPC: 1.68138 cumulative IPC: 1.19258 (Simulation time: 0 hr 31 min 44 sec) 
Heartbeat CPU 0 instructions: 920000000 cycles: 724073731 heartbeat IPC: 1.53173 cumulative IPC: 1.19581 (Simulation time: 0 hr 32 min 4 sec) 
Heartbeat CPU 0 instructions: 930000003 cycles: 730477526 heartbeat IPC: 1.56157 cumulative IPC: 1.1992 (Simulation time: 0 hr 32 min 25 sec) 
Heartbeat CPU 0 instructions: 940000002 cycles: 736980694 heartbeat IPC: 1.53771 cumulative IPC: 1.20235 (Simulation time: 0 hr 32 min 47 sec) 
Heartbeat CPU 0 instructions: 950000002 cycles: 743940259 heartbeat IPC: 1.43687 cumulative IPC: 1.20466 (Simulation time: 0 hr 33 min 10 sec) 
Heartbeat CPU 0 instructions: 960000000 cycles: 751066497 heartbeat IPC: 1.40326 cumulative IPC: 1.20665 (Simulation time: 0 hr 33 min 31 sec) 
Heartbeat CPU 0 instructions: 970000000 cycles: 758201864 heartbeat IPC: 1.40147 cumulative IPC: 1.20858 (Simulation time: 0 hr 33 min 52 sec) 
Heartbeat CPU 0 instructions: 980000000 cycles: 765228086 heartbeat IPC: 1.42324 cumulative IPC: 1.21065 (Simulation time: 0 hr 34 min 12 sec) 
Heartbeat CPU 0 instructions: 990000000 cycles: 772401682 heartbeat IPC: 1.394 cumulative IPC: 1.21244 (Simulation time: 0 hr 34 min 33 sec) 
Heartbeat CPU 0 instructions: 1000000000 cycles: 779235363 heartbeat IPC: 1.46334 cumulative IPC: 1.21476 (Simulation time: 0 hr 34 min 54 sec) 
Heartbeat CPU 0 instructions: 1010000000 cycles: 785204631 heartbeat IPC: 1.67525 cumulative IPC: 1.21844 (Simulation time: 0 hr 35 min 14 sec) 
Heartbeat CPU 0 instructions: 1020000003 cycles: 792145835 heartbeat IPC: 1.44067 cumulative IPC: 1.22048 (Simulation time: 0 hr 35 min 35 sec) 
Heartbeat CPU 0 instructions: 1030000000 cycles: 798582371 heartbeat IPC: 1.55363 cumulative IPC: 1.2233 (Simulation time: 0 hr 35 min 57 sec) 
Heartbeat CPU 0 instructions: 1040000000 cycles: 805302121 heartbeat IPC: 1.48815 cumulative IPC: 1.22563 (Simulation time: 0 hr 36 min 18 sec) 
Heartbeat CPU 0 instructions: 1050000000 cycles: 812355300 heartbeat IPC: 1.4178 cumulative IPC: 1.22738 (Simulation time: 0 hr 36 min 39 sec) 
Heartbeat CPU 0 instructions: 1060000001 cycles: 819647992 heartbeat IPC: 1.37124 cumulative IPC: 1.22872 (Simulation time: 0 hr 37 min 1 sec) 
Heartbeat CPU 0 instructions: 1070000000 cycles: 826871906 heartbeat IPC: 1.38429 cumulative IPC: 1.23014 (Simulation time: 0 hr 37 min 21 sec) 
Heartbeat CPU 0 instructions: 1080000000 cycles: 833408891 heartbeat IPC: 1.52976 cumulative IPC: 1.23261 (Simulation time: 0 hr 37 min 42 sec) 
Heartbeat CPU 0 instructions: 1090000001 cycles: 840148630 heartbeat IPC: 1.48374 cumulative IPC: 1.23472 (Simulation time: 0 hr 38 min 3 sec) 
Heartbeat CPU 0 instructions: 1100000000 cycles: 846329151 heartbeat IPC: 1.61799 cumulative IPC: 1.23765 (Simulation time: 0 hr 38 min 24 sec) 
Finished CPU 0 instructions: 1000000002 cycles: 807982590 cumulative IPC: 1.23765 (Simulation time: 0 hr 38 min 24 sec) 

ChampSim completed all CPUs

Region of Interest Statistics

CPU 0 cumulative IPC: 1.23765 instructions: 1000000002 cycles: 807982590
L1D TOTAL     ACCESS:  370656754  HIT:  369251214  MISS:    1405540
L1D LOAD      ACCESS:  163370799  HIT:  162077619  MISS:    1293180
L1D RFO       ACCESS:  207285955  HIT:  207173595  MISS:     112360
L1D PREFETCH  ACCESS:          0  HIT:          0  MISS:          0
L1D WRITEBACK ACCESS:          0  HIT:          0  MISS:          0
L1D PREFETCH  REQUESTED:          0  ISSUED:          0  USEFUL:          0  USELESS:          0
L1D AVERAGE MISS LATENCY: 62.0982 cycles
L1I TOTAL     ACCESS:  158615366  HIT:  156965617  MISS:    1649749
L1I LOAD      ACCESS:  158615366  HIT:  156965617  MISS:    1649749
L1I RFO       ACCESS:          0  HIT:          0  MISS:          0
L1I PREFETCH  ACCESS:          0  HIT:          0  MISS:          0
L1I WRITEBACK ACCESS:          0  HIT:          0  MISS:          0
L1I PREFETCH  REQUESTED:          0  ISSUED:          0  USEFUL:          0  USELESS:          0
L1I AVERAGE MISS LATENCY: 17.1881 cycles
L2C TOTAL     ACCESS:    3423751  HIT:    2774700  MISS:     649051
L2C LOAD      ACCESS:    2942801  HIT:    2337009  MISS:     605792
L2C RFO       ACCESS:     112353  HIT:      72652  MISS:      39701
L2C PREFETCH  ACCESS:          0  HIT:          0  MISS:          0
L2C WRITEBACK ACCESS:     368597  HIT:     365039  MISS:       3558
L2C PREFETCH  REQUESTED:          0  ISSUED:          0  USEFUL:          0  USELESS:          0
L2C AVERAGE MISS LATENCY: 120.877 cycles
LLC TOTAL     ACCESS:     777646  HIT:     448303  MISS:     329343
LLC LOAD      ACCESS:     605782  HIT:     297742  MISS:     308040
LLC RFO       ACCESS:      39700  HIT:      18733  MISS:      20967
LLC PREFETCH  ACCESS:          0  HIT:          0  MISS:          0
LLC WRITEBACK ACCESS:     132164  HIT:     131828  MISS:        336
LLC PREFETCH  REQUESTED:          0  ISSUED:          0  USEFUL:          0  USELESS:          0
LLC AVERAGE MISS LATENCY: 159.38 cycles
Major fault: 0 Minor fault: 6011

DRAM Statistics
 CHANNEL 0
 RQ ROW_BUFFER_HIT:      84491  ROW_BUFFER_MISS:     244516
 DBUS_CONGESTED:      26321
 WQ ROW_BUFFER_HIT:      21906  ROW_BUFFER_MISS:      39658  FULL:          0

 AVG_CONGESTED_CYCLE: 6

CPU 0 Branch Prediction Accuracy: 97.1732% MPKI: 4.19273 Average ROB Occupancy at Mispredict: 78.4205

Branch types
NOT_BRANCH: 851679750 85.168%
BRANCH_DIRECT_JUMP: 20351476 2.03515%
BRANCH_INDIRECT: 7090827 0.709083%
BRANCH_CONDITIONAL: 105247556 10.5248%
BRANCH_DIRECT_CALL: 7012686 0.701269%
BRANCH_INDIRECT_CALL: 802358 0.0802358%
BRANCH_RETURN: 7815043 0.781504%
BRANCH_OTHER: 0 0%

