
*** ChampSim Multicore Out-of-Order Simulator ***

Warmup Instructions: 100000000
Simulation Instructions: 1000000000
Number of CPUs: 1
LLC sets: 2048
LLC ways: 16
Off-chip DRAM Size: 4096 MB Channels: 1 Width: 64-bit Data Rate: 3200 MT/s

CPU 0 runs /scratch/user/kevin.weston/dpc3-traces/600.champsimtrace.xz
CPU 0 Bimodal branch predictor
Per-line RRPV Initialized
PRRIP State Initialized
Assign SAMPLER_SET[0]: 454  LLC: 2048
SAMPLER_SET[0]: 454
Assign SAMPLER_SET[1]: 1662  LLC: 2048
SAMPLER_SET[1]: 1662
Assign SAMPLER_SET[2]: 1921  LLC: 2048
SAMPLER_SET[2]: 1921
Assign SAMPLER_SET[3]: 1131  LLC: 2048
SAMPLER_SET[3]: 1131
Assign SAMPLER_SET[4]: 331  LLC: 2048
SAMPLER_SET[4]: 331
Assign SAMPLER_SET[5]: 1531  LLC: 2048
SAMPLER_SET[5]: 1531
Assign SAMPLER_SET[6]: 482  LLC: 2048
SAMPLER_SET[6]: 482
Assign SAMPLER_SET[7]: 1275  LLC: 2048
SAMPLER_SET[7]: 1275
Assign SAMPLER_SET[8]: 1876  LLC: 2048
SAMPLER_SET[8]: 1876
Assign SAMPLER_SET[9]: 2038  LLC: 2048
SAMPLER_SET[9]: 2038
Assign SAMPLER_SET[10]: 701  LLC: 2048
SAMPLER_SET[10]: 701
Assign SAMPLER_SET[11]: 479  LLC: 2048
SAMPLER_SET[11]: 479
Assign SAMPLER_SET[12]: 892  LLC: 2048
SAMPLER_SET[12]: 892
Assign SAMPLER_SET[13]: 1820  LLC: 2048
SAMPLER_SET[13]: 1820
Assign SAMPLER_SET[14]: 1505  LLC: 2048
SAMPLER_SET[14]: 1505
Assign SAMPLER_SET[15]: 1159  LLC: 2048
SAMPLER_SET[15]: 1159
Assign SAMPLER_SET[16]: 513  LLC: 2048
SAMPLER_SET[16]: 513
Assign SAMPLER_SET[17]: 703  LLC: 2048
SAMPLER_SET[17]: 703
Assign SAMPLER_SET[18]: 561  LLC: 2048
SAMPLER_SET[18]: 561
Assign SAMPLER_SET[19]: 990  LLC: 2048
SAMPLER_SET[19]: 990
Assign SAMPLER_SET[20]: 342  LLC: 2048
SAMPLER_SET[20]: 342
Assign SAMPLER_SET[21]: 882  LLC: 2048
SAMPLER_SET[21]: 882
Assign SAMPLER_SET[22]: 15  LLC: 2048
SAMPLER_SET[22]: 15
Assign SAMPLER_SET[23]: 71  LLC: 2048
SAMPLER_SET[23]: 71
Assign SAMPLER_SET[24]: 1127  LLC: 2048
SAMPLER_SET[24]: 1127
Assign SAMPLER_SET[25]: 1382  LLC: 2048
SAMPLER_SET[25]: 1382
Assign SAMPLER_SET[26]: 647  LLC: 2048
SAMPLER_SET[26]: 647
Assign SAMPLER_SET[27]: 857  LLC: 2048
SAMPLER_SET[27]: 857
Assign SAMPLER_SET[28]: 1450  LLC: 2048
SAMPLER_SET[28]: 1450
Assign SAMPLER_SET[29]: 1160  LLC: 2048
SAMPLER_SET[29]: 1160
Assign SAMPLER_SET[30]: 1852  LLC: 2048
SAMPLER_SET[30]: 1852
Assign SAMPLER_SET[31]: 1881  LLC: 2048
SAMPLER_SET[31]: 1881
Assign SAMPLER_SET[32]: 1770  LLC: 2048
SAMPLER_SET[32]: 1770
Assign SAMPLER_SET[33]: 1622  LLC: 2048
SAMPLER_SET[33]: 1622
Assign SAMPLER_SET[34]: 275  LLC: 2048
SAMPLER_SET[34]: 275
Assign SAMPLER_SET[35]: 635  LLC: 2048
SAMPLER_SET[35]: 635
Assign SAMPLER_SET[36]: 466  LLC: 2048
SAMPLER_SET[36]: 466
Assign SAMPLER_SET[37]: 1413  LLC: 2048
SAMPLER_SET[37]: 1413
Assign SAMPLER_SET[38]: 417  LLC: 2048
SAMPLER_SET[38]: 417
Assign SAMPLER_SET[39]: 472  LLC: 2048
SAMPLER_SET[39]: 472
Assign SAMPLER_SET[40]: 1340  LLC: 2048
SAMPLER_SET[40]: 1340
Assign SAMPLER_SET[41]: 852  LLC: 2048
SAMPLER_SET[41]: 852
Assign SAMPLER_SET[42]: 1365  LLC: 2048
SAMPLER_SET[42]: 1365
Assign SAMPLER_SET[43]: 47  LLC: 2048
SAMPLER_SET[43]: 47
Assign SAMPLER_SET[44]: 823  LLC: 2048
SAMPLER_SET[44]: 823
Assign SAMPLER_SET[45]: 686  LLC: 2048
SAMPLER_SET[45]: 686
Assign SAMPLER_SET[46]: 1637  LLC: 2048
SAMPLER_SET[46]: 1637
Assign SAMPLER_SET[47]: 1115  LLC: 2048
SAMPLER_SET[47]: 1115
Assign SAMPLER_SET[48]: 986  LLC: 2048
SAMPLER_SET[48]: 986
Assign SAMPLER_SET[49]: 258  LLC: 2048
SAMPLER_SET[49]: 258
Assign SAMPLER_SET[50]: 633  LLC: 2048
SAMPLER_SET[50]: 633
Assign SAMPLER_SET[51]: 920  LLC: 2048
SAMPLER_SET[51]: 920
Assign SAMPLER_SET[52]: 204  LLC: 2048
SAMPLER_SET[52]: 204
Assign SAMPLER_SET[53]: 227  LLC: 2048
SAMPLER_SET[53]: 227
Assign SAMPLER_SET[54]: 1818  LLC: 2048
SAMPLER_SET[54]: 1818
Assign SAMPLER_SET[55]: 886  LLC: 2048
SAMPLER_SET[55]: 886
Assign SAMPLER_SET[56]: 1422  LLC: 2048
SAMPLER_SET[56]: 1422
Assign SAMPLER_SET[57]: 607  LLC: 2048
SAMPLER_SET[57]: 607
Assign SAMPLER_SET[58]: 217  LLC: 2048
SAMPLER_SET[58]: 217
Assign SAMPLER_SET[59]: 1945  LLC: 2048
SAMPLER_SET[59]: 1945
Assign SAMPLER_SET[60]: 143  LLC: 2048
SAMPLER_SET[60]: 143
Assign SAMPLER_SET[61]: 1311  LLC: 2048
SAMPLER_SET[61]: 1311
Assign SAMPLER_SET[62]: 319  LLC: 2048
SAMPLER_SET[62]: 319
Assign SAMPLER_SET[63]: 1846  LLC: 2048
SAMPLER_SET[63]: 1846
Assign SAMPLER_SET[64]: 238  LLC: 2048
SAMPLER_SET[64]: 238
Assign SAMPLER_SET[65]: 67  LLC: 2048
SAMPLER_SET[65]: 67
Assign SAMPLER_SET[66]: 1912  LLC: 2048
SAMPLER_SET[66]: 1912
Assign SAMPLER_SET[67]: 1613  LLC: 2048
SAMPLER_SET[67]: 1613
Assign SAMPLER_SET[68]: 1293  LLC: 2048
SAMPLER_SET[68]: 1293
Assign SAMPLER_SET[69]: 1018  LLC: 2048
SAMPLER_SET[69]: 1018
Assign SAMPLER_SET[70]: 1982  LLC: 2048
SAMPLER_SET[70]: 1982
Assign SAMPLER_SET[71]: 1702  LLC: 2048
SAMPLER_SET[71]: 1702
Assign SAMPLER_SET[72]: 1498  LLC: 2048
SAMPLER_SET[72]: 1498
Assign SAMPLER_SET[73]: 228  LLC: 2048
SAMPLER_SET[73]: 228
Assign SAMPLER_SET[74]: 1414  LLC: 2048
SAMPLER_SET[74]: 1414
Assign SAMPLER_SET[75]: 1166  LLC: 2048
SAMPLER_SET[75]: 1166
Assign SAMPLER_SET[76]: 732  LLC: 2048
SAMPLER_SET[76]: 732
Assign SAMPLER_SET[77]: 297  LLC: 2048
SAMPLER_SET[77]: 297
Assign SAMPLER_SET[78]: 1133  LLC: 2048
SAMPLER_SET[78]: 1133
Assign SAMPLER_SET[79]: 846  LLC: 2048
SAMPLER_SET[79]: 846
Assign SAMPLER_SET[80]: 767  LLC: 2048
SAMPLER_SET[80]: 767
Assign SAMPLER_SET[81]: 1878  LLC: 2048
SAMPLER_SET[81]: 1878
Assign SAMPLER_SET[82]: 993  LLC: 2048
SAMPLER_SET[82]: 993
Assign SAMPLER_SET[83]: 1392  LLC: 2048
SAMPLER_SET[83]: 1392
Assign SAMPLER_SET[84]: 1568  LLC: 2048
SAMPLER_SET[84]: 1568
Assign SAMPLER_SET[85]: 1787  LLC: 2048
SAMPLER_SET[85]: 1787
Assign SAMPLER_SET[86]: 399  LLC: 2048
SAMPLER_SET[86]: 399
Assign SAMPLER_SET[87]: 1201  LLC: 2048
SAMPLER_SET[87]: 1201
Assign SAMPLER_SET[88]: 856  LLC: 2048
SAMPLER_SET[88]: 856
Assign SAMPLER_SET[89]: 773  LLC: 2048
SAMPLER_SET[89]: 773
Assign SAMPLER_SET[90]: 1680  LLC: 2048
SAMPLER_SET[90]: 1680
Assign SAMPLER_SET[91]: 1477  LLC: 2048
SAMPLER_SET[91]: 1477
Assign SAMPLER_SET[92]: 9  LLC: 2048
SAMPLER_SET[92]: 9
Assign SAMPLER_SET[93]: 1500  LLC: 2048
SAMPLER_SET[93]: 1500
Assign SAMPLER_SET[94]: 851  LLC: 2048
SAMPLER_SET[94]: 851
Assign SAMPLER_SET[95]: 973  LLC: 2048
SAMPLER_SET[95]: 973
Assign SAMPLER_SET[96]: 938  LLC: 2048
SAMPLER_SET[96]: 938
Assign SAMPLER_SET[97]: 1851  LLC: 2048
SAMPLER_SET[97]: 1851
Assign SAMPLER_SET[98]: 1608  LLC: 2048
SAMPLER_SET[98]: 1608
Assign SAMPLER_SET[99]: 1945  LLC: 2048
Assign SAMPLER_SET[99]: 1106  LLC: 2048
SAMPLER_SET[99]: 1106
Assign SAMPLER_SET[100]: 979  LLC: 2048
SAMPLER_SET[100]: 979
Assign SAMPLER_SET[101]: 338  LLC: 2048
SAMPLER_SET[101]: 338
Assign SAMPLER_SET[102]: 1693  LLC: 2048
SAMPLER_SET[102]: 1693
Assign SAMPLER_SET[103]: 6  LLC: 2048
SAMPLER_SET[103]: 6
Assign SAMPLER_SET[104]: 671  LLC: 2048
SAMPLER_SET[104]: 671
Assign SAMPLER_SET[105]: 490  LLC: 2048
SAMPLER_SET[105]: 490
Assign SAMPLER_SET[106]: 1461  LLC: 2048
SAMPLER_SET[106]: 1461
Assign SAMPLER_SET[107]: 1730  LLC: 2048
SAMPLER_SET[107]: 1730
Assign SAMPLER_SET[108]: 1030  LLC: 2048
SAMPLER_SET[108]: 1030
Assign SAMPLER_SET[109]: 19  LLC: 2048
SAMPLER_SET[109]: 19
Assign SAMPLER_SET[110]: 920  LLC: 2048
Assign SAMPLER_SET[110]: 329  LLC: 2048
SAMPLER_SET[110]: 329
Assign SAMPLER_SET[111]: 1714  LLC: 2048
SAMPLER_SET[111]: 1714
Assign SAMPLER_SET[112]: 1  LLC: 2048
SAMPLER_SET[112]: 1
Assign SAMPLER_SET[113]: 1822  LLC: 2048
SAMPLER_SET[113]: 1822
Assign SAMPLER_SET[114]: 172  LLC: 2048
SAMPLER_SET[114]: 172
Assign SAMPLER_SET[115]: 1586  LLC: 2048
SAMPLER_SET[115]: 1586
Assign SAMPLER_SET[116]: 648  LLC: 2048
SAMPLER_SET[116]: 648
Assign SAMPLER_SET[117]: 1329  LLC: 2048
SAMPLER_SET[117]: 1329
Assign SAMPLER_SET[118]: 668  LLC: 2048
SAMPLER_SET[118]: 668
Assign SAMPLER_SET[119]: 1874  LLC: 2048
SAMPLER_SET[119]: 1874
Assign SAMPLER_SET[120]: 70  LLC: 2048
SAMPLER_SET[120]: 70
Assign SAMPLER_SET[121]: 661  LLC: 2048
SAMPLER_SET[121]: 661
Assign SAMPLER_SET[122]: 1649  LLC: 2048
SAMPLER_SET[122]: 1649
Assign SAMPLER_SET[123]: 1590  LLC: 2048
SAMPLER_SET[123]: 1590
Assign SAMPLER_SET[124]: 911  LLC: 2048
SAMPLER_SET[124]: 911
Assign SAMPLER_SET[125]: 1367  LLC: 2048
SAMPLER_SET[125]: 1367
Assign SAMPLER_SET[126]: 1782  LLC: 2048
SAMPLER_SET[126]: 1782
Assign SAMPLER_SET[127]: 569  LLC: 2048
SAMPLER_SET[127]: 569
Assign SAMPLER_SET[128]: 1309  LLC: 2048
SAMPLER_SET[128]: 1309
Assign SAMPLER_SET[129]: 534  LLC: 2048
SAMPLER_SET[129]: 534
Assign SAMPLER_SET[130]: 1274  LLC: 2048
SAMPLER_SET[130]: 1274
Assign SAMPLER_SET[131]: 904  LLC: 2048
SAMPLER_SET[131]: 904
Assign SAMPLER_SET[132]: 1908  LLC: 2048
SAMPLER_SET[132]: 1908
Assign SAMPLER_SET[133]: 245  LLC: 2048
SAMPLER_SET[133]: 245
Assign SAMPLER_SET[134]: 1688  LLC: 2048
SAMPLER_SET[134]: 1688
Assign SAMPLER_SET[135]: 1660  LLC: 2048
SAMPLER_SET[135]: 1660
Assign SAMPLER_SET[136]: 1303  LLC: 2048
SAMPLER_SET[136]: 1303
Assign SAMPLER_SET[137]: 1628  LLC: 2048
SAMPLER_SET[137]: 1628
Assign SAMPLER_SET[138]: 1857  LLC: 2048
SAMPLER_SET[138]: 1857
Assign SAMPLER_SET[139]: 187  LLC: 2048
SAMPLER_SET[139]: 187
Assign SAMPLER_SET[140]: 1389  LLC: 2048
SAMPLER_SET[140]: 1389
Assign SAMPLER_SET[141]: 881  LLC: 2048
SAMPLER_SET[141]: 881
Assign SAMPLER_SET[142]: 1166  LLC: 2048
Assign SAMPLER_SET[142]: 1039  LLC: 2048
SAMPLER_SET[142]: 1039
Assign SAMPLER_SET[143]: 1136  LLC: 2048
SAMPLER_SET[143]: 1136
Assign SAMPLER_SET[144]: 601  LLC: 2048
SAMPLER_SET[144]: 601
Assign SAMPLER_SET[145]: 967  LLC: 2048
SAMPLER_SET[145]: 967
Assign SAMPLER_SET[146]: 769  LLC: 2048
SAMPLER_SET[146]: 769
Assign SAMPLER_SET[147]: 283  LLC: 2048
SAMPLER_SET[147]: 283
Assign SAMPLER_SET[148]: 559  LLC: 2048
SAMPLER_SET[148]: 559
Assign SAMPLER_SET[149]: 1075  LLC: 2048
SAMPLER_SET[149]: 1075
Assign SAMPLER_SET[150]: 829  LLC: 2048
SAMPLER_SET[150]: 829
Assign SAMPLER_SET[151]: 1681  LLC: 2048
SAMPLER_SET[151]: 1681
Assign SAMPLER_SET[152]: 1728  LLC: 2048
SAMPLER_SET[152]: 1728
Assign SAMPLER_SET[153]: 541  LLC: 2048
SAMPLER_SET[153]: 541
Assign SAMPLER_SET[154]: 421  LLC: 2048
SAMPLER_SET[154]: 421
Assign SAMPLER_SET[155]: 1037  LLC: 2048
SAMPLER_SET[155]: 1037
Assign SAMPLER_SET[156]: 13  LLC: 2048
SAMPLER_SET[156]: 13
Assign SAMPLER_SET[157]: 1707  LLC: 2048
SAMPLER_SET[157]: 1707
Assign SAMPLER_SET[158]: 1075  LLC: 2048
Assign SAMPLER_SET[158]: 1933  LLC: 2048
SAMPLER_SET[158]: 1933
Assign SAMPLER_SET[159]: 1406  LLC: 2048
SAMPLER_SET[159]: 1406
Assign SAMPLER_SET[160]: 94  LLC: 2048
SAMPLER_SET[160]: 94
Assign SAMPLER_SET[161]: 1423  LLC: 2048
SAMPLER_SET[161]: 1423
Assign SAMPLER_SET[162]: 1854  LLC: 2048
SAMPLER_SET[162]: 1854
Assign SAMPLER_SET[163]: 230  LLC: 2048
SAMPLER_SET[163]: 230
Assign SAMPLER_SET[164]: 104  LLC: 2048
SAMPLER_SET[164]: 104
Assign SAMPLER_SET[165]: 1652  LLC: 2048
SAMPLER_SET[165]: 1652
Assign SAMPLER_SET[166]: 1446  LLC: 2048
SAMPLER_SET[166]: 1446
Assign SAMPLER_SET[167]: 1338  LLC: 2048
SAMPLER_SET[167]: 1338
Assign SAMPLER_SET[168]: 177  LLC: 2048
SAMPLER_SET[168]: 177
Assign SAMPLER_SET[169]: 195  LLC: 2048
SAMPLER_SET[169]: 195
Assign SAMPLER_SET[170]: 1171  LLC: 2048
SAMPLER_SET[170]: 1171
Assign SAMPLER_SET[171]: 1297  LLC: 2048
SAMPLER_SET[171]: 1297
Assign SAMPLER_SET[172]: 1704  LLC: 2048
SAMPLER_SET[172]: 1704
Assign SAMPLER_SET[173]: 100  LLC: 2048
SAMPLER_SET[173]: 100
Assign SAMPLER_SET[174]: 711  LLC: 2048
SAMPLER_SET[174]: 711
Assign SAMPLER_SET[175]: 1243  LLC: 2048
SAMPLER_SET[175]: 1243
Assign SAMPLER_SET[176]: 1738  LLC: 2048
SAMPLER_SET[176]: 1738
Assign SAMPLER_SET[177]: 1504  LLC: 2048
SAMPLER_SET[177]: 1504
Assign SAMPLER_SET[178]: 96  LLC: 2048
SAMPLER_SET[178]: 96
Assign SAMPLER_SET[179]: 1249  LLC: 2048
SAMPLER_SET[179]: 1249
Assign SAMPLER_SET[180]: 1267  LLC: 2048
SAMPLER_SET[180]: 1267
Assign SAMPLER_SET[181]: 1727  LLC: 2048
SAMPLER_SET[181]: 1727
Assign SAMPLER_SET[182]: 1545  LLC: 2048
SAMPLER_SET[182]: 1545
Assign SAMPLER_SET[183]: 1792  LLC: 2048
SAMPLER_SET[183]: 1792
Assign SAMPLER_SET[184]: 1383  LLC: 2048
SAMPLER_SET[184]: 1383
Assign SAMPLER_SET[185]: 1954  LLC: 2048
SAMPLER_SET[185]: 1954
Assign SAMPLER_SET[186]: 739  LLC: 2048
SAMPLER_SET[186]: 739
Assign SAMPLER_SET[187]: 1061  LLC: 2048
SAMPLER_SET[187]: 1061
Assign SAMPLER_SET[188]: 672  LLC: 2048
SAMPLER_SET[188]: 672
Assign SAMPLER_SET[189]: 1057  LLC: 2048
SAMPLER_SET[189]: 1057
Assign SAMPLER_SET[190]: 1329  LLC: 2048
Assign SAMPLER_SET[190]: 1415  LLC: 2048
SAMPLER_SET[190]: 1415
Assign SAMPLER_SET[191]: 981  LLC: 2048
SAMPLER_SET[191]: 981
Assign SAMPLER_SET[192]: 98  LLC: 2048
SAMPLER_SET[192]: 98
Assign SAMPLER_SET[193]: 453  LLC: 2048
SAMPLER_SET[193]: 453
Assign SAMPLER_SET[194]: 1448  LLC: 2048
SAMPLER_SET[194]: 1448
Assign SAMPLER_SET[195]: 79  LLC: 2048
SAMPLER_SET[195]: 79
Assign SAMPLER_SET[196]: 126  LLC: 2048
SAMPLER_SET[196]: 126
Assign SAMPLER_SET[197]: 1582  LLC: 2048
SAMPLER_SET[197]: 1582
Assign SAMPLER_SET[198]: 1289  LLC: 2048
SAMPLER_SET[198]: 1289
Assign SAMPLER_SET[199]: 875  LLC: 2048
SAMPLER_SET[199]: 875
Assign SAMPLER_SET[200]: 404  LLC: 2048
SAMPLER_SET[200]: 404
Assign SAMPLER_SET[201]: 415  LLC: 2048
SAMPLER_SET[201]: 415
Assign SAMPLER_SET[202]: 1712  LLC: 2048
SAMPLER_SET[202]: 1712
Assign SAMPLER_SET[203]: 1389  LLC: 2048
Assign SAMPLER_SET[203]: 169  LLC: 2048
SAMPLER_SET[203]: 169
Assign SAMPLER_SET[204]: 158  LLC: 2048
SAMPLER_SET[204]: 158
Assign SAMPLER_SET[205]: 90  LLC: 2048
SAMPLER_SET[205]: 90
Assign SAMPLER_SET[206]: 1291  LLC: 2048
SAMPLER_SET[206]: 1291
Assign SAMPLER_SET[207]: 838  LLC: 2048
SAMPLER_SET[207]: 838
Assign SAMPLER_SET[208]: 1904  LLC: 2048
SAMPLER_SET[208]: 1904
Assign SAMPLER_SET[209]: 640  LLC: 2048
SAMPLER_SET[209]: 640
Assign SAMPLER_SET[210]: 1462  LLC: 2048
SAMPLER_SET[210]: 1462
Assign SAMPLER_SET[211]: 1487  LLC: 2048
SAMPLER_SET[211]: 1487
Assign SAMPLER_SET[212]: 1863  LLC: 2048
SAMPLER_SET[212]: 1863
Assign SAMPLER_SET[213]: 1036  LLC: 2048
SAMPLER_SET[213]: 1036
Assign SAMPLER_SET[214]: 1702  LLC: 2048
Assign SAMPLER_SET[214]: 933  LLC: 2048
SAMPLER_SET[214]: 933
Assign SAMPLER_SET[215]: 554  LLC: 2048
SAMPLER_SET[215]: 554
Assign SAMPLER_SET[216]: 1496  LLC: 2048
SAMPLER_SET[216]: 1496
Assign SAMPLER_SET[217]: 1708  LLC: 2048
SAMPLER_SET[217]: 1708
Assign SAMPLER_SET[218]: 1275  LLC: 2048
Assign SAMPLER_SET[218]: 416  LLC: 2048
SAMPLER_SET[218]: 416
Assign SAMPLER_SET[219]: 491  LLC: 2048
SAMPLER_SET[219]: 491
Assign SAMPLER_SET[220]: 183  LLC: 2048
SAMPLER_SET[220]: 183
Assign SAMPLER_SET[221]: 1657  LLC: 2048
SAMPLER_SET[221]: 1657
Assign SAMPLER_SET[222]: 1060  LLC: 2048
SAMPLER_SET[222]: 1060
Assign SAMPLER_SET[223]: 626  LLC: 2048
SAMPLER_SET[223]: 626
Assign SAMPLER_SET[224]: 1315  LLC: 2048
SAMPLER_SET[224]: 1315
Assign SAMPLER_SET[225]: 1682  LLC: 2048
SAMPLER_SET[225]: 1682
Assign SAMPLER_SET[226]: 1352  LLC: 2048
SAMPLER_SET[226]: 1352
Assign SAMPLER_SET[227]: 1152  LLC: 2048
SAMPLER_SET[227]: 1152
Assign SAMPLER_SET[228]: 965  LLC: 2048
SAMPLER_SET[228]: 965
Assign SAMPLER_SET[229]: 1190  LLC: 2048
SAMPLER_SET[229]: 1190
Assign SAMPLER_SET[230]: 1191  LLC: 2048
SAMPLER_SET[230]: 1191
Assign SAMPLER_SET[231]: 645  LLC: 2048
SAMPLER_SET[231]: 645
Assign SAMPLER_SET[232]: 695  LLC: 2048
SAMPLER_SET[232]: 695
Assign SAMPLER_SET[233]: 1495  LLC: 2048
SAMPLER_SET[233]: 1495
Assign SAMPLER_SET[234]: 1932  LLC: 2048
SAMPLER_SET[234]: 1932
Assign SAMPLER_SET[235]: 656  LLC: 2048
SAMPLER_SET[235]: 656
Assign SAMPLER_SET[236]: 1508  LLC: 2048
SAMPLER_SET[236]: 1508
Assign SAMPLER_SET[237]: 939  LLC: 2048
SAMPLER_SET[237]: 939
Assign SAMPLER_SET[238]: 355  LLC: 2048
SAMPLER_SET[238]: 355
Assign SAMPLER_SET[239]: 1092  LLC: 2048
SAMPLER_SET[239]: 1092
Assign SAMPLER_SET[240]: 850  LLC: 2048
SAMPLER_SET[240]: 850
Assign SAMPLER_SET[241]: 102  LLC: 2048
SAMPLER_SET[241]: 102
Assign SAMPLER_SET[242]: 1763  LLC: 2048
SAMPLER_SET[242]: 1763
Assign SAMPLER_SET[243]: 668  LLC: 2048
Assign SAMPLER_SET[243]: 51  LLC: 2048
SAMPLER_SET[243]: 51
Assign SAMPLER_SET[244]: 1317  LLC: 2048
SAMPLER_SET[244]: 1317
Assign SAMPLER_SET[245]: 2041  LLC: 2048
SAMPLER_SET[245]: 2041
Assign SAMPLER_SET[246]: 1374  LLC: 2048
SAMPLER_SET[246]: 1374
Assign SAMPLER_SET[247]: 682  LLC: 2048
SAMPLER_SET[247]: 682
Assign SAMPLER_SET[248]: 1466  LLC: 2048
SAMPLER_SET[248]: 1466
Assign SAMPLER_SET[249]: 1139  LLC: 2048
SAMPLER_SET[249]: 1139
Assign SAMPLER_SET[250]: 1632  LLC: 2048
SAMPLER_SET[250]: 1632
Assign SAMPLER_SET[251]: 1117  LLC: 2048
SAMPLER_SET[251]: 1117
Assign SAMPLER_SET[252]: 1611  LLC: 2048
SAMPLER_SET[252]: 1611
Assign SAMPLER_SET[253]: 1905  LLC: 2048
SAMPLER_SET[253]: 1905
Assign SAMPLER_SET[254]: 1662  LLC: 2048
Assign SAMPLER_SET[254]: 446  LLC: 2048
SAMPLER_SET[254]: 446
Assign SAMPLER_SET[255]: 1705  LLC: 2048
SAMPLER_SET[255]: 1705
Heartbeat CPU 0 instructions: 10000000 cycles: 3913880 heartbeat IPC: 2.55501 cumulative IPC: 2.55501 (Simulation time: 0 hr 0 min 23 sec) 
Heartbeat CPU 0 instructions: 20000000 cycles: 7798820 heartbeat IPC: 2.57404 cumulative IPC: 2.56449 (Simulation time: 0 hr 0 min 48 sec) 
Heartbeat CPU 0 instructions: 30000002 cycles: 11687098 heartbeat IPC: 2.57183 cumulative IPC: 2.56693 (Simulation time: 0 hr 1 min 12 sec) 
Heartbeat CPU 0 instructions: 40000000 cycles: 15534060 heartbeat IPC: 2.59945 cumulative IPC: 2.57499 (Simulation time: 0 hr 1 min 36 sec) 
Heartbeat CPU 0 instructions: 50000003 cycles: 19429668 heartbeat IPC: 2.56699 cumulative IPC: 2.57338 (Simulation time: 0 hr 2 min 1 sec) 
Heartbeat CPU 0 instructions: 60000003 cycles: 23343362 heartbeat IPC: 2.55513 cumulative IPC: 2.57032 (Simulation time: 0 hr 2 min 25 sec) 
Heartbeat CPU 0 instructions: 70000003 cycles: 26923794 heartbeat IPC: 2.79296 cumulative IPC: 2.59993 (Simulation time: 0 hr 2 min 49 sec) 
Heartbeat CPU 0 instructions: 80000001 cycles: 30549858 heartbeat IPC: 2.75781 cumulative IPC: 2.61867 (Simulation time: 0 hr 3 min 14 sec) 
Heartbeat CPU 0 instructions: 90000000 cycles: 34402341 heartbeat IPC: 2.59573 cumulative IPC: 2.6161 (Simulation time: 0 hr 3 min 38 sec) 
Heartbeat CPU 0 instructions: 100000000 cycles: 38346567 heartbeat IPC: 2.53535 cumulative IPC: 2.6078 (Simulation time: 0 hr 4 min 3 sec) 

Warmup complete CPU 0 instructions: 100000004 cycles: 38346568 (Simulation time: 0 hr 4 min 3 sec) 

Heartbeat CPU 0 instructions: 110000000 cycles: 44831974 heartbeat IPC: 1.54192 cumulative IPC: 1.54192 (Simulation time: 0 hr 4 min 22 sec) 
Heartbeat CPU 0 instructions: 120000002 cycles: 51317678 heartbeat IPC: 1.54185 cumulative IPC: 1.54189 (Simulation time: 0 hr 4 min 43 sec) 
Heartbeat CPU 0 instructions: 130000000 cycles: 58728979 heartbeat IPC: 1.34929 cumulative IPC: 1.47186 (Simulation time: 0 hr 5 min 3 sec) 
Heartbeat CPU 0 instructions: 140000003 cycles: 66085231 heartbeat IPC: 1.35939 cumulative IPC: 1.44203 (Simulation time: 0 hr 5 min 23 sec) 
Heartbeat CPU 0 instructions: 150000000 cycles: 72777732 heartbeat IPC: 1.49421 cumulative IPC: 1.45217 (Simulation time: 0 hr 5 min 43 sec) 
Heartbeat CPU 0 instructions: 160000001 cycles: 79087131 heartbeat IPC: 1.58494 cumulative IPC: 1.47273 (Simulation time: 0 hr 6 min 2 sec) 
Heartbeat CPU 0 instructions: 170000002 cycles: 86173431 heartbeat IPC: 1.41117 cumulative IPC: 1.46361 (Simulation time: 0 hr 6 min 22 sec) 
Heartbeat CPU 0 instructions: 180000000 cycles: 92596412 heartbeat IPC: 1.55691 cumulative IPC: 1.47466 (Simulation time: 0 hr 6 min 42 sec) 
Heartbeat CPU 0 instructions: 190000003 cycles: 98999807 heartbeat IPC: 1.56167 cumulative IPC: 1.48384 (Simulation time: 0 hr 7 min 5 sec) 
Heartbeat CPU 0 instructions: 200000000 cycles: 106694439 heartbeat IPC: 1.29961 cumulative IPC: 1.4631 (Simulation time: 0 hr 7 min 25 sec) 
Heartbeat CPU 0 instructions: 210000001 cycles: 114150468 heartbeat IPC: 1.3412 cumulative IPC: 1.45111 (Simulation time: 0 hr 7 min 46 sec) 
Heartbeat CPU 0 instructions: 220000000 cycles: 121555328 heartbeat IPC: 1.35046 cumulative IPC: 1.44216 (Simulation time: 0 hr 8 min 6 sec) 
Heartbeat CPU 0 instructions: 230000000 cycles: 128938180 heartbeat IPC: 1.35449 cumulative IPC: 1.43501 (Simulation time: 0 hr 8 min 27 sec) 
Heartbeat CPU 0 instructions: 240000003 cycles: 136241988 heartbeat IPC: 1.36915 cumulative IPC: 1.4301 (Simulation time: 0 hr 8 min 48 sec) 
Heartbeat CPU 0 instructions: 250000002 cycles: 142352055 heartbeat IPC: 1.63664 cumulative IPC: 1.44223 (Simulation time: 0 hr 9 min 7 sec) 
Heartbeat CPU 0 instructions: 260000002 cycles: 149582848 heartbeat IPC: 1.38297 cumulative IPC: 1.43838 (Simulation time: 0 hr 9 min 27 sec) 
Heartbeat CPU 0 instructions: 270000001 cycles: 156480641 heartbeat IPC: 1.44974 cumulative IPC: 1.43904 (Simulation time: 0 hr 9 min 48 sec) 
Heartbeat CPU 0 instructions: 280000002 cycles: 163016349 heartbeat IPC: 1.53006 cumulative IPC: 1.44381 (Simulation time: 0 hr 10 min 9 sec) 
Heartbeat CPU 0 instructions: 290000001 cycles: 170312167 heartbeat IPC: 1.37065 cumulative IPC: 1.43977 (Simulation time: 0 hr 10 min 30 sec) 
Heartbeat CPU 0 instructions: 300000000 cycles: 177913032 heartbeat IPC: 1.31564 cumulative IPC: 1.43301 (Simulation time: 0 hr 10 min 50 sec) 
Heartbeat CPU 0 instructions: 310000003 cycles: 185371117 heartbeat IPC: 1.34083 cumulative IPC: 1.42833 (Simulation time: 0 hr 11 min 10 sec) 
Heartbeat CPU 0 instructions: 320000001 cycles: 192426311 heartbeat IPC: 1.4174 cumulative IPC: 1.42783 (Simulation time: 0 hr 11 min 30 sec) 
Heartbeat CPU 0 instructions: 330000000 cycles: 198756869 heartbeat IPC: 1.57964 cumulative IPC: 1.43382 (Simulation time: 0 hr 11 min 49 sec) 
Heartbeat CPU 0 instructions: 340000002 cycles: 205318993 heartbeat IPC: 1.5239 cumulative IPC: 1.43736 (Simulation time: 0 hr 12 min 10 sec) 
Heartbeat CPU 0 instructions: 350000000 cycles: 211971861 heartbeat IPC: 1.50311 cumulative IPC: 1.43988 (Simulation time: 0 hr 12 min 31 sec) 
Heartbeat CPU 0 instructions: 360000001 cycles: 219327906 heartbeat IPC: 1.35943 cumulative IPC: 1.43661 (Simulation time: 0 hr 12 min 51 sec) 
Heartbeat CPU 0 instructions: 370000003 cycles: 226055599 heartbeat IPC: 1.48639 cumulative IPC: 1.4384 (Simulation time: 0 hr 13 min 12 sec) 
Heartbeat CPU 0 instructions: 380000003 cycles: 233082255 heartbeat IPC: 1.42315 cumulative IPC: 1.43785 (Simulation time: 0 hr 13 min 32 sec) 
Heartbeat CPU 0 instructions: 390000001 cycles: 240492275 heartbeat IPC: 1.34952 cumulative IPC: 1.43461 (Simulation time: 0 hr 13 min 53 sec) 
Heartbeat CPU 0 instructions: 400000001 cycles: 247848937 heartbeat IPC: 1.35931 cumulative IPC: 1.43196 (Simulation time: 0 hr 14 min 13 sec) 
Heartbeat CPU 0 instructions: 410000000 cycles: 254722026 heartbeat IPC: 1.45495 cumulative IPC: 1.43269 (Simulation time: 0 hr 14 min 33 sec) 
Heartbeat CPU 0 instructions: 420000001 cycles: 261526645 heartbeat IPC: 1.46959 cumulative IPC: 1.43382 (Simulation time: 0 hr 14 min 53 sec) 
Heartbeat CPU 0 instructions: 430000000 cycles: 267816239 heartbeat IPC: 1.58993 cumulative IPC: 1.4381 (Simulation time: 0 hr 15 min 15 sec) 
Heartbeat CPU 0 instructions: 440000000 cycles: 275037864 heartbeat IPC: 1.38473 cumulative IPC: 1.43647 (Simulation time: 0 hr 15 min 35 sec) 
Heartbeat CPU 0 instructions: 450000000 cycles: 281318945 heartbeat IPC: 1.59208 cumulative IPC: 1.44049 (Simulation time: 0 hr 15 min 56 sec) 
Heartbeat CPU 0 instructions: 460000002 cycles: 288511082 heartbeat IPC: 1.39041 cumulative IPC: 1.43905 (Simulation time: 0 hr 16 min 17 sec) 
Heartbeat CPU 0 instructions: 470000003 cycles: 299119321 heartbeat IPC: 0.942664 cumulative IPC: 1.41886 (Simulation time: 0 hr 16 min 38 sec) 
Heartbeat CPU 0 instructions: 480000003 cycles: 309430303 heartbeat IPC: 0.96984 cumulative IPC: 1.40178 (Simulation time: 0 hr 16 min 58 sec) 
Heartbeat CPU 0 instructions: 490000002 cycles: 316541597 heartbeat IPC: 1.40621 cumulative IPC: 1.40189 (Simulation time: 0 hr 17 min 17 sec) 
Heartbeat CPU 0 instructions: 500000001 cycles: 324896605 heartbeat IPC: 1.19689 cumulative IPC: 1.39592 (Simulation time: 0 hr 17 min 36 sec) 
Heartbeat CPU 0 instructions: 510000002 cycles: 336104571 heartbeat IPC: 0.892223 cumulative IPC: 1.37696 (Simulation time: 0 hr 17 min 55 sec) 
Heartbeat CPU 0 instructions: 520000003 cycles: 352585492 heartbeat IPC: 0.606762 cumulative IPC: 1.33656 (Simulation time: 0 hr 18 min 16 sec) 
Heartbeat CPU 0 instructions: 530000003 cycles: 367144363 heartbeat IPC: 0.686866 cumulative IPC: 1.30779 (Simulation time: 0 hr 18 min 36 sec) 
Heartbeat CPU 0 instructions: 540000002 cycles: 380745945 heartbeat IPC: 0.735209 cumulative IPC: 1.28505 (Simulation time: 0 hr 18 min 56 sec) 
Heartbeat CPU 0 instructions: 550000000 cycles: 397305927 heartbeat IPC: 0.603865 cumulative IPC: 1.25362 (Simulation time: 0 hr 19 min 17 sec) 
Heartbeat CPU 0 instructions: 560000001 cycles: 404990707 heartbeat IPC: 1.30127 cumulative IPC: 1.25462 (Simulation time: 0 hr 19 min 39 sec) 
Heartbeat CPU 0 instructions: 570000000 cycles: 412391450 heartbeat IPC: 1.35122 cumulative IPC: 1.25653 (Simulation time: 0 hr 19 min 59 sec) 
Heartbeat CPU 0 instructions: 580000000 cycles: 420441423 heartbeat IPC: 1.24224 cumulative IPC: 1.25623 (Simulation time: 0 hr 20 min 20 sec) 
Heartbeat CPU 0 instructions: 590000000 cycles: 428392123 heartbeat IPC: 1.25775 cumulative IPC: 1.25626 (Simulation time: 0 hr 20 min 41 sec) 
Heartbeat CPU 0 instructions: 600000001 cycles: 440196393 heartbeat IPC: 0.847151 cumulative IPC: 1.24425 (Simulation time: 0 hr 21 min 2 sec) 
Heartbeat CPU 0 instructions: 610000001 cycles: 455434064 heartbeat IPC: 0.656268 cumulative IPC: 1.22276 (Simulation time: 0 hr 21 min 24 sec) 
Heartbeat CPU 0 instructions: 620000002 cycles: 471473615 heartbeat IPC: 0.623459 cumulative IPC: 1.20057 (Simulation time: 0 hr 21 min 45 sec) 
Heartbeat CPU 0 instructions: 630000003 cycles: 483287958 heartbeat IPC: 0.846429 cumulative IPC: 1.19117 (Simulation time: 0 hr 22 min 7 sec) 
Heartbeat CPU 0 instructions: 640000000 cycles: 495421225 heartbeat IPC: 0.82418 cumulative IPC: 1.18143 (Simulation time: 0 hr 22 min 28 sec) 
Heartbeat CPU 0 instructions: 650000003 cycles: 511289232 heartbeat IPC: 0.630199 cumulative IPC: 1.16293 (Simulation time: 0 hr 22 min 50 sec) 
Heartbeat CPU 0 instructions: 660000000 cycles: 526162838 heartbeat IPC: 0.672332 cumulative IPC: 1.14797 (Simulation time: 0 hr 23 min 10 sec) 
Heartbeat CPU 0 instructions: 670000001 cycles: 536283616 heartbeat IPC: 0.988066 cumulative IPC: 1.14472 (Simulation time: 0 hr 23 min 32 sec) 
Heartbeat CPU 0 instructions: 680000000 cycles: 552494954 heartbeat IPC: 0.616852 cumulative IPC: 1.12808 (Simulation time: 0 hr 23 min 53 sec) 
Heartbeat CPU 0 instructions: 690000002 cycles: 568097373 heartbeat IPC: 0.640926 cumulative IPC: 1.11373 (Simulation time: 0 hr 24 min 14 sec) 
Heartbeat CPU 0 instructions: 700000001 cycles: 575214055 heartbeat IPC: 1.40515 cumulative IPC: 1.11759 (Simulation time: 0 hr 24 min 35 sec) 
Heartbeat CPU 0 instructions: 710000001 cycles: 581830074 heartbeat IPC: 1.51148 cumulative IPC: 1.12239 (Simulation time: 0 hr 24 min 56 sec) 
Heartbeat CPU 0 instructions: 720000001 cycles: 588418479 heartbeat IPC: 1.51782 cumulative IPC: 1.12713 (Simulation time: 0 hr 25 min 17 sec) 
Heartbeat CPU 0 instructions: 730000001 cycles: 594167225 heartbeat IPC: 1.73951 cumulative IPC: 1.13346 (Simulation time: 0 hr 25 min 40 sec) 
Heartbeat CPU 0 instructions: 740000000 cycles: 600287476 heartbeat IPC: 1.63392 cumulative IPC: 1.13891 (Simulation time: 0 hr 26 min 2 sec) 
Heartbeat CPU 0 instructions: 750000002 cycles: 607178728 heartbeat IPC: 1.45112 cumulative IPC: 1.14269 (Simulation time: 0 hr 26 min 23 sec) 
Heartbeat CPU 0 instructions: 760000000 cycles: 614257387 heartbeat IPC: 1.4127 cumulative IPC: 1.14601 (Simulation time: 0 hr 26 min 44 sec) 
Heartbeat CPU 0 instructions: 770000000 cycles: 621088619 heartbeat IPC: 1.46386 cumulative IPC: 1.14974 (Simulation time: 0 hr 27 min 5 sec) 
Heartbeat CPU 0 instructions: 780000003 cycles: 627548296 heartbeat IPC: 1.54807 cumulative IPC: 1.1541 (Simulation time: 0 hr 27 min 27 sec) 
Heartbeat CPU 0 instructions: 790000000 cycles: 634311484 heartbeat IPC: 1.47859 cumulative IPC: 1.15779 (Simulation time: 0 hr 27 min 48 sec) 
Heartbeat CPU 0 instructions: 800000001 cycles: 640768605 heartbeat IPC: 1.54868 cumulative IPC: 1.16198 (Simulation time: 0 hr 28 min 10 sec) 
Heartbeat CPU 0 instructions: 810000000 cycles: 647801357 heartbeat IPC: 1.42192 cumulative IPC: 1.16498 (Simulation time: 0 hr 28 min 31 sec) 
Heartbeat CPU 0 instructions: 820000002 cycles: 653566668 heartbeat IPC: 1.73451 cumulative IPC: 1.17031 (Simulation time: 0 hr 28 min 49 sec) 
Heartbeat CPU 0 instructions: 830000002 cycles: 659198319 heartbeat IPC: 1.77568 cumulative IPC: 1.1758 (Simulation time: 0 hr 29 min 8 sec) 
Heartbeat CPU 0 instructions: 840000003 cycles: 665853645 heartbeat IPC: 1.50256 cumulative IPC: 1.17927 (Simulation time: 0 hr 29 min 27 sec) 
Heartbeat CPU 0 instructions: 850000000 cycles: 673022693 heartbeat IPC: 1.39488 cumulative IPC: 1.18171 (Simulation time: 0 hr 29 min 47 sec) 
Heartbeat CPU 0 instructions: 860000000 cycles: 679664702 heartbeat IPC: 1.50557 cumulative IPC: 1.18506 (Simulation time: 0 hr 30 min 7 sec) 
Heartbeat CPU 0 instructions: 870000001 cycles: 686343430 heartbeat IPC: 1.49729 cumulative IPC: 1.18828 (Simulation time: 0 hr 30 min 28 sec) 
Heartbeat CPU 0 instructions: 880000000 cycles: 693261864 heartbeat IPC: 1.44541 cumulative IPC: 1.19099 (Simulation time: 0 hr 30 min 49 sec) 
Heartbeat CPU 0 instructions: 890000001 cycles: 700309405 heartbeat IPC: 1.41893 cumulative IPC: 1.19342 (Simulation time: 0 hr 31 min 9 sec) 
Heartbeat CPU 0 instructions: 900000001 cycles: 707134514 heartbeat IPC: 1.46518 cumulative IPC: 1.19619 (Simulation time: 0 hr 31 min 30 sec) 
Heartbeat CPU 0 instructions: 910000001 cycles: 713078153 heartbeat IPC: 1.68247 cumulative IPC: 1.20048 (Simulation time: 0 hr 31 min 51 sec) 
Heartbeat CPU 0 instructions: 920000000 cycles: 719603652 heartbeat IPC: 1.53245 cumulative IPC: 1.20366 (Simulation time: 0 hr 32 min 12 sec) 
Heartbeat CPU 0 instructions: 930000003 cycles: 726005524 heartbeat IPC: 1.56204 cumulative IPC: 1.20699 (Simulation time: 0 hr 32 min 32 sec) 
Heartbeat CPU 0 instructions: 940000002 cycles: 732507132 heartbeat IPC: 1.53808 cumulative IPC: 1.21009 (Simulation time: 0 hr 32 min 54 sec) 
Heartbeat CPU 0 instructions: 950000002 cycles: 739464297 heartbeat IPC: 1.43737 cumulative IPC: 1.21235 (Simulation time: 0 hr 33 min 17 sec) 
Heartbeat CPU 0 instructions: 960000000 cycles: 746581300 heartbeat IPC: 1.40509 cumulative IPC: 1.21429 (Simulation time: 0 hr 33 min 38 sec) 
Heartbeat CPU 0 instructions: 970000000 cycles: 753694158 heartbeat IPC: 1.4059 cumulative IPC: 1.21619 (Simulation time: 0 hr 33 min 59 sec) 
Heartbeat CPU 0 instructions: 980000000 cycles: 760717924 heartbeat IPC: 1.42374 cumulative IPC: 1.21821 (Simulation time: 0 hr 34 min 19 sec) 
Heartbeat CPU 0 instructions: 990000000 cycles: 767881982 heartbeat IPC: 1.39586 cumulative IPC: 1.21995 (Simulation time: 0 hr 34 min 40 sec) 
Heartbeat CPU 0 instructions: 1000000000 cycles: 774714263 heartbeat IPC: 1.46364 cumulative IPC: 1.22222 (Simulation time: 0 hr 35 min 1 sec) 
Heartbeat CPU 0 instructions: 1010000000 cycles: 780679324 heartbeat IPC: 1.67643 cumulative IPC: 1.22587 (Simulation time: 0 hr 35 min 20 sec) 
Heartbeat CPU 0 instructions: 1020000003 cycles: 787611103 heartbeat IPC: 1.44263 cumulative IPC: 1.22787 (Simulation time: 0 hr 35 min 42 sec) 
Heartbeat CPU 0 instructions: 1030000000 cycles: 794043458 heartbeat IPC: 1.55464 cumulative IPC: 1.23065 (Simulation time: 0 hr 36 min 4 sec) 
Heartbeat CPU 0 instructions: 1040000000 cycles: 800748838 heartbeat IPC: 1.49134 cumulative IPC: 1.23294 (Simulation time: 0 hr 36 min 25 sec) 
Heartbeat CPU 0 instructions: 1050000000 cycles: 807796100 heartbeat IPC: 1.41899 cumulative IPC: 1.23465 (Simulation time: 0 hr 36 min 46 sec) 
Heartbeat CPU 0 instructions: 1060000001 cycles: 815084737 heartbeat IPC: 1.372 cumulative IPC: 1.23594 (Simulation time: 0 hr 37 min 8 sec) 
Heartbeat CPU 0 instructions: 1070000000 cycles: 822286755 heartbeat IPC: 1.3885 cumulative IPC: 1.23734 (Simulation time: 0 hr 37 min 28 sec) 
Heartbeat CPU 0 instructions: 1080000000 cycles: 828814277 heartbeat IPC: 1.53197 cumulative IPC: 1.23977 (Simulation time: 0 hr 37 min 48 sec) 
Heartbeat CPU 0 instructions: 1090000001 cycles: 835550502 heartbeat IPC: 1.48451 cumulative IPC: 1.24184 (Simulation time: 0 hr 38 min 9 sec) 
Heartbeat CPU 0 instructions: 1100000000 cycles: 841725837 heartbeat IPC: 1.61935 cumulative IPC: 1.24474 (Simulation time: 0 hr 38 min 32 sec) 
Finished CPU 0 instructions: 1000000002 cycles: 803379280 cumulative IPC: 1.24474 (Simulation time: 0 hr 38 min 32 sec) 

ChampSim completed all CPUs

Region of Interest Statistics

CPU 0 cumulative IPC: 1.24474 instructions: 1000000002 cycles: 803379280
L1D TOTAL     ACCESS:  370657651  HIT:  369252121  MISS:    1405530
L1D LOAD      ACCESS:  163371720  HIT:  162078548  MISS:    1293172
L1D RFO       ACCESS:  207285931  HIT:  207173573  MISS:     112358
L1D PREFETCH  ACCESS:          0  HIT:          0  MISS:          0
L1D WRITEBACK ACCESS:          0  HIT:          0  MISS:          0
L1D PREFETCH  REQUESTED:          0  ISSUED:          0  USEFUL:          0  USELESS:          0
L1D AVERAGE MISS LATENCY: 58.1453 cycles
L1I TOTAL     ACCESS:  158613221  HIT:  156963470  MISS:    1649751
L1I LOAD      ACCESS:  158613221  HIT:  156963470  MISS:    1649751
L1I RFO       ACCESS:          0  HIT:          0  MISS:          0
L1I PREFETCH  ACCESS:          0  HIT:          0  MISS:          0
L1I WRITEBACK ACCESS:          0  HIT:          0  MISS:          0
L1I PREFETCH  REQUESTED:          0  ISSUED:          0  USEFUL:          0  USELESS:          0
L1I AVERAGE MISS LATENCY: 16.7584 cycles
L2C TOTAL     ACCESS:    3423756  HIT:    2763365  MISS:     660391
L2C LOAD      ACCESS:    2942799  HIT:    2327170  MISS:     615629
L2C RFO       ACCESS:     112353  HIT:      71578  MISS:      40775
L2C PREFETCH  ACCESS:          0  HIT:          0  MISS:          0
L2C WRITEBACK ACCESS:     368604  HIT:     364617  MISS:       3987
L2C PREFETCH  REQUESTED:          0  ISSUED:          0  USEFUL:          0  USELESS:          0
L2C AVERAGE MISS LATENCY: 109.303 cycles
LLC TOTAL     ACCESS:     790869  HIT:     477298  MISS:     313571
LLC LOAD      ACCESS:     615628  HIT:     344451  MISS:     271177
LLC RFO       ACCESS:      40774  HIT:      21815  MISS:      18959
LLC PREFETCH  ACCESS:          0  HIT:          0  MISS:          0
LLC WRITEBACK ACCESS:     134467  HIT:     111032  MISS:      23435
LLC PREFETCH  REQUESTED:          0  ISSUED:          0  USEFUL:          0  USELESS:          0
LLC AVERAGE MISS LATENCY: 145.904 cycles
Major fault: 0 Minor fault: 6011
==============================
Perceptron RRIP Stats:
   Num Updates:          80067
   Num Primary Trains:   4128
   Num Secondary Trains: 4293
==============================
primary_perceptron #0: 0 -2 4 0 -4 2 2 -2 0 2 -2 2 0 2 2 -18 
secondary_perceptron #0: 1 -1 5 -1 -1 3 3 -1 1 1 -5 3 1 1 3 1 1 3 -3 1 -23 


DRAM Statistics
 CHANNEL 0
 RQ ROW_BUFFER_HIT:      79647  ROW_BUFFER_MISS:     210488
 DBUS_CONGESTED:      20965
 WQ ROW_BUFFER_HIT:      14749  ROW_BUFFER_MISS:      34752  FULL:          0

 AVG_CONGESTED_CYCLE: 6

CPU 0 Branch Prediction Accuracy: 97.1732% MPKI: 4.19273 Average ROB Occupancy at Mispredict: 78.4081

Branch types
NOT_BRANCH: 851679750 85.168%
BRANCH_DIRECT_JUMP: 20351476 2.03515%
BRANCH_INDIRECT: 7090827 0.709083%
BRANCH_CONDITIONAL: 105247556 10.5248%
BRANCH_DIRECT_CALL: 7012686 0.701269%
BRANCH_INDIRECT_CALL: 802358 0.0802358%
BRANCH_RETURN: 7815043 0.781504%
BRANCH_OTHER: 0 0%

