
*** ChampSim Multicore Out-of-Order Simulator ***

Warmup Instructions: 100000000
Simulation Instructions: 1000000000
Number of CPUs: 1
LLC sets: 2048
LLC ways: 16
Off-chip DRAM Size: 4096 MB Channels: 1 Width: 64-bit Data Rate: 3200 MT/s

CPU 0 runs /scratch/user/kevin.weston/dpc3-traces/602.champsimtrace.xz
CPU 0 Bimodal branch predictor
Heartbeat CPU 0 instructions: 10000001 cycles: 5015427 heartbeat IPC: 1.99385 cumulative IPC: 1.99385 (Simulation time: 0 hr 0 min 23 sec) 
Heartbeat CPU 0 instructions: 20000002 cycles: 10021554 heartbeat IPC: 1.99755 cumulative IPC: 1.9957 (Simulation time: 0 hr 0 min 46 sec) 
Heartbeat CPU 0 instructions: 30000000 cycles: 15029824 heartbeat IPC: 1.9967 cumulative IPC: 1.99603 (Simulation time: 0 hr 1 min 10 sec) 
Heartbeat CPU 0 instructions: 40000002 cycles: 20050935 heartbeat IPC: 1.99159 cumulative IPC: 1.99492 (Simulation time: 0 hr 1 min 33 sec) 
Heartbeat CPU 0 instructions: 50000000 cycles: 25061990 heartbeat IPC: 1.99559 cumulative IPC: 1.99505 (Simulation time: 0 hr 1 min 56 sec) 
Heartbeat CPU 0 instructions: 60000000 cycles: 30079045 heartbeat IPC: 1.9932 cumulative IPC: 1.99474 (Simulation time: 0 hr 2 min 19 sec) 
Heartbeat CPU 0 instructions: 70000002 cycles: 35084003 heartbeat IPC: 1.99802 cumulative IPC: 1.99521 (Simulation time: 0 hr 2 min 42 sec) 
Heartbeat CPU 0 instructions: 80000000 cycles: 40087408 heartbeat IPC: 1.99864 cumulative IPC: 1.99564 (Simulation time: 0 hr 3 min 5 sec) 
Heartbeat CPU 0 instructions: 90000000 cycles: 45099469 heartbeat IPC: 1.99519 cumulative IPC: 1.99559 (Simulation time: 0 hr 3 min 28 sec) 
Heartbeat CPU 0 instructions: 100000000 cycles: 50097068 heartbeat IPC: 2.00096 cumulative IPC: 1.99612 (Simulation time: 0 hr 3 min 50 sec) 

Warmup complete CPU 0 instructions: 100000004 cycles: 50097069 (Simulation time: 0 hr 3 min 50 sec) 

Heartbeat CPU 0 instructions: 110000000 cycles: 71319716 heartbeat IPC: 0.471195 cumulative IPC: 0.471195 (Simulation time: 0 hr 4 min 9 sec) 
Heartbeat CPU 0 instructions: 120000000 cycles: 92610672 heartbeat IPC: 0.469683 cumulative IPC: 0.470438 (Simulation time: 0 hr 4 min 29 sec) 
Heartbeat CPU 0 instructions: 130000003 cycles: 115634280 heartbeat IPC: 0.434337 cumulative IPC: 0.457755 (Simulation time: 0 hr 4 min 49 sec) 
Heartbeat CPU 0 instructions: 140000001 cycles: 137404231 heartbeat IPC: 0.459349 cumulative IPC: 0.458153 (Simulation time: 0 hr 5 min 9 sec) 
Heartbeat CPU 0 instructions: 150000000 cycles: 159053256 heartbeat IPC: 0.461915 cumulative IPC: 0.4589 (Simulation time: 0 hr 5 min 28 sec) 
Heartbeat CPU 0 instructions: 160000003 cycles: 180828677 heartbeat IPC: 0.459234 cumulative IPC: 0.458956 (Simulation time: 0 hr 5 min 48 sec) 
Heartbeat CPU 0 instructions: 170000000 cycles: 202088216 heartbeat IPC: 0.470377 cumulative IPC: 0.460553 (Simulation time: 0 hr 6 min 7 sec) 
Heartbeat CPU 0 instructions: 180000000 cycles: 223603330 heartbeat IPC: 0.46479 cumulative IPC: 0.461078 (Simulation time: 0 hr 6 min 27 sec) 
Heartbeat CPU 0 instructions: 190000002 cycles: 260742909 heartbeat IPC: 0.269255 cumulative IPC: 0.427257 (Simulation time: 0 hr 6 min 48 sec) 
Heartbeat CPU 0 instructions: 200000000 cycles: 287588064 heartbeat IPC: 0.372507 cumulative IPC: 0.421069 (Simulation time: 0 hr 7 min 8 sec) 
Heartbeat CPU 0 instructions: 210000000 cycles: 308822629 heartbeat IPC: 0.47093 cumulative IPC: 0.425161 (Simulation time: 0 hr 7 min 27 sec) 
Heartbeat CPU 0 instructions: 220000000 cycles: 330508253 heartbeat IPC: 0.461135 cumulative IPC: 0.427943 (Simulation time: 0 hr 7 min 47 sec) 
Heartbeat CPU 0 instructions: 230000002 cycles: 351843959 heartbeat IPC: 0.468698 cumulative IPC: 0.430825 (Simulation time: 0 hr 8 min 6 sec) 
Heartbeat CPU 0 instructions: 240000001 cycles: 373163051 heartbeat IPC: 0.469063 cumulative IPC: 0.433348 (Simulation time: 0 hr 8 min 26 sec) 
Heartbeat CPU 0 instructions: 250000000 cycles: 395079923 heartbeat IPC: 0.456269 cumulative IPC: 0.434804 (Simulation time: 0 hr 8 min 45 sec) 
Heartbeat CPU 0 instructions: 260000000 cycles: 416326492 heartbeat IPC: 0.470664 cumulative IPC: 0.436885 (Simulation time: 0 hr 9 min 5 sec) 
Heartbeat CPU 0 instructions: 270000000 cycles: 437952375 heartbeat IPC: 0.462409 cumulative IPC: 0.438308 (Simulation time: 0 hr 9 min 25 sec) 
Heartbeat CPU 0 instructions: 280000001 cycles: 459473785 heartbeat IPC: 0.464654 cumulative IPC: 0.439693 (Simulation time: 0 hr 9 min 44 sec) 
Heartbeat CPU 0 instructions: 290000002 cycles: 480745017 heartbeat IPC: 0.470119 cumulative IPC: 0.441196 (Simulation time: 0 hr 10 min 3 sec) 
Heartbeat CPU 0 instructions: 300000000 cycles: 502325093 heartbeat IPC: 0.46339 cumulative IPC: 0.442255 (Simulation time: 0 hr 10 min 23 sec) 
Heartbeat CPU 0 instructions: 310000000 cycles: 523594432 heartbeat IPC: 0.47016 cumulative IPC: 0.443508 (Simulation time: 0 hr 10 min 42 sec) 
Heartbeat CPU 0 instructions: 320000001 cycles: 544940948 heartbeat IPC: 0.468461 cumulative IPC: 0.444585 (Simulation time: 0 hr 11 min 2 sec) 
Heartbeat CPU 0 instructions: 330000000 cycles: 566502995 heartbeat IPC: 0.463778 cumulative IPC: 0.445386 (Simulation time: 0 hr 11 min 21 sec) 
Heartbeat CPU 0 instructions: 340000002 cycles: 587790214 heartbeat IPC: 0.469766 cumulative IPC: 0.446351 (Simulation time: 0 hr 11 min 40 sec) 
Heartbeat CPU 0 instructions: 350000000 cycles: 609174263 heartbeat IPC: 0.467638 cumulative IPC: 0.447165 (Simulation time: 0 hr 12 min 0 sec) 
Heartbeat CPU 0 instructions: 360000000 cycles: 630823668 heartbeat IPC: 0.461906 cumulative IPC: 0.447715 (Simulation time: 0 hr 12 min 19 sec) 
Heartbeat CPU 0 instructions: 370000000 cycles: 652175425 heartbeat IPC: 0.468346 cumulative IPC: 0.448447 (Simulation time: 0 hr 12 min 39 sec) 
Heartbeat CPU 0 instructions: 380000000 cycles: 673590860 heartbeat IPC: 0.466953 cumulative IPC: 0.449082 (Simulation time: 0 hr 12 min 58 sec) 
Heartbeat CPU 0 instructions: 390000000 cycles: 695439965 heartbeat IPC: 0.457685 cumulative IPC: 0.449374 (Simulation time: 0 hr 13 min 18 sec) 
Heartbeat CPU 0 instructions: 400000002 cycles: 716703630 heartbeat IPC: 0.470286 cumulative IPC: 0.450041 (Simulation time: 0 hr 13 min 38 sec) 
Heartbeat CPU 0 instructions: 410000002 cycles: 737998772 heartbeat IPC: 0.469591 cumulative IPC: 0.450646 (Simulation time: 0 hr 13 min 57 sec) 
Heartbeat CPU 0 instructions: 420000000 cycles: 761181786 heartbeat IPC: 0.43135 cumulative IPC: 0.450017 (Simulation time: 0 hr 14 min 17 sec) 
Heartbeat CPU 0 instructions: 430000001 cycles: 782501898 heartbeat IPC: 0.469041 cumulative IPC: 0.45057 (Simulation time: 0 hr 14 min 36 sec) 
Heartbeat CPU 0 instructions: 440000000 cycles: 803852767 heartbeat IPC: 0.468365 cumulative IPC: 0.451075 (Simulation time: 0 hr 14 min 56 sec) 
Heartbeat CPU 0 instructions: 450000002 cycles: 825475720 heartbeat IPC: 0.462472 cumulative IPC: 0.451392 (Simulation time: 0 hr 15 min 15 sec) 
Heartbeat CPU 0 instructions: 460000000 cycles: 846729647 heartbeat IPC: 0.470501 cumulative IPC: 0.451902 (Simulation time: 0 hr 15 min 35 sec) 
Heartbeat CPU 0 instructions: 470000000 cycles: 868292192 heartbeat IPC: 0.463767 cumulative IPC: 0.452215 (Simulation time: 0 hr 15 min 54 sec) 
Heartbeat CPU 0 instructions: 480000003 cycles: 890691216 heartbeat IPC: 0.446448 cumulative IPC: 0.452061 (Simulation time: 0 hr 16 min 14 sec) 
Heartbeat CPU 0 instructions: 490000000 cycles: 911942171 heartbeat IPC: 0.470567 cumulative IPC: 0.452518 (Simulation time: 0 hr 16 min 33 sec) 
Heartbeat CPU 0 instructions: 500000003 cycles: 933744021 heartbeat IPC: 0.458677 cumulative IPC: 0.452669 (Simulation time: 0 hr 16 min 53 sec) 
Heartbeat CPU 0 instructions: 510000000 cycles: 954949986 heartbeat IPC: 0.471565 cumulative IPC: 0.453112 (Simulation time: 0 hr 17 min 12 sec) 
Heartbeat CPU 0 instructions: 520000000 cycles: 976416652 heartbeat IPC: 0.465839 cumulative IPC: 0.453407 (Simulation time: 0 hr 17 min 31 sec) 
Heartbeat CPU 0 instructions: 530000000 cycles: 997903262 heartbeat IPC: 0.465406 cumulative IPC: 0.453679 (Simulation time: 0 hr 17 min 51 sec) 
Heartbeat CPU 0 instructions: 540000002 cycles: 1019104853 heartbeat IPC: 0.471663 cumulative IPC: 0.454073 (Simulation time: 0 hr 18 min 11 sec) 
Heartbeat CPU 0 instructions: 550000000 cycles: 1040375804 heartbeat IPC: 0.470125 cumulative IPC: 0.454417 (Simulation time: 0 hr 18 min 30 sec) 
Heartbeat CPU 0 instructions: 560000003 cycles: 1063979687 heartbeat IPC: 0.423659 cumulative IPC: 0.453701 (Simulation time: 0 hr 18 min 50 sec) 
Heartbeat CPU 0 instructions: 570000001 cycles: 1085581616 heartbeat IPC: 0.462922 cumulative IPC: 0.453894 (Simulation time: 0 hr 19 min 9 sec) 
Heartbeat CPU 0 instructions: 580000000 cycles: 1107420552 heartbeat IPC: 0.457898 cumulative IPC: 0.453976 (Simulation time: 0 hr 19 min 29 sec) 
Heartbeat CPU 0 instructions: 590000000 cycles: 1128810247 heartbeat IPC: 0.467515 cumulative IPC: 0.454245 (Simulation time: 0 hr 19 min 49 sec) 
Heartbeat CPU 0 instructions: 600000000 cycles: 1150048923 heartbeat IPC: 0.470839 cumulative IPC: 0.454565 (Simulation time: 0 hr 20 min 8 sec) 
Heartbeat CPU 0 instructions: 610000001 cycles: 1171512292 heartbeat IPC: 0.46591 cumulative IPC: 0.454782 (Simulation time: 0 hr 20 min 27 sec) 
Heartbeat CPU 0 instructions: 620000001 cycles: 1192747496 heartbeat IPC: 0.470916 cumulative IPC: 0.455082 (Simulation time: 0 hr 20 min 47 sec) 
Heartbeat CPU 0 instructions: 630000000 cycles: 1213959122 heartbeat IPC: 0.47144 cumulative IPC: 0.45538 (Simulation time: 0 hr 21 min 6 sec) 
Heartbeat CPU 0 instructions: 640000002 cycles: 1235493780 heartbeat IPC: 0.464368 cumulative IPC: 0.455544 (Simulation time: 0 hr 21 min 26 sec) 
Heartbeat CPU 0 instructions: 650000001 cycles: 1256777441 heartbeat IPC: 0.469844 cumulative IPC: 0.455796 (Simulation time: 0 hr 21 min 45 sec) 
Heartbeat CPU 0 instructions: 660000000 cycles: 1278105028 heartbeat IPC: 0.468876 cumulative IPC: 0.456023 (Simulation time: 0 hr 22 min 4 sec) 
Heartbeat CPU 0 instructions: 670000001 cycles: 1299697991 heartbeat IPC: 0.463114 cumulative IPC: 0.456146 (Simulation time: 0 hr 22 min 24 sec) 
Heartbeat CPU 0 instructions: 680000000 cycles: 1321052981 heartbeat IPC: 0.468275 cumulative IPC: 0.456349 (Simulation time: 0 hr 22 min 44 sec) 
Heartbeat CPU 0 instructions: 690000000 cycles: 1342366592 heartbeat IPC: 0.469184 cumulative IPC: 0.456561 (Simulation time: 0 hr 23 min 3 sec) 
Heartbeat CPU 0 instructions: 700000003 cycles: 1363926784 heartbeat IPC: 0.463818 cumulative IPC: 0.45668 (Simulation time: 0 hr 23 min 23 sec) 
Heartbeat CPU 0 instructions: 710000001 cycles: 1385211394 heartbeat IPC: 0.469823 cumulative IPC: 0.45689 (Simulation time: 0 hr 23 min 42 sec) 
Heartbeat CPU 0 instructions: 720000000 cycles: 1406655806 heartbeat IPC: 0.466322 cumulative IPC: 0.457039 (Simulation time: 0 hr 24 min 2 sec) 
Heartbeat CPU 0 instructions: 730000000 cycles: 1428563307 heartbeat IPC: 0.456465 cumulative IPC: 0.45703 (Simulation time: 0 hr 24 min 21 sec) 
Heartbeat CPU 0 instructions: 740000003 cycles: 1450167192 heartbeat IPC: 0.46288 cumulative IPC: 0.45712 (Simulation time: 0 hr 24 min 41 sec) 
Heartbeat CPU 0 instructions: 750000003 cycles: 1471933047 heartbeat IPC: 0.459435 cumulative IPC: 0.457155 (Simulation time: 0 hr 25 min 1 sec) 
Heartbeat CPU 0 instructions: 760000001 cycles: 1508897857 heartbeat IPC: 0.270528 cumulative IPC: 0.452426 (Simulation time: 0 hr 25 min 22 sec) 
Heartbeat CPU 0 instructions: 770000000 cycles: 1536679717 heartbeat IPC: 0.359947 cumulative IPC: 0.450698 (Simulation time: 0 hr 25 min 42 sec) 
Heartbeat CPU 0 instructions: 780000001 cycles: 1557891043 heartbeat IPC: 0.471446 cumulative IPC: 0.45099 (Simulation time: 0 hr 26 min 2 sec) 
Heartbeat CPU 0 instructions: 790000003 cycles: 1579374066 heartbeat IPC: 0.465484 cumulative IPC: 0.451194 (Simulation time: 0 hr 26 min 21 sec) 
Heartbeat CPU 0 instructions: 800000000 cycles: 1600893719 heartbeat IPC: 0.464691 cumulative IPC: 0.451381 (Simulation time: 0 hr 26 min 41 sec) 
Heartbeat CPU 0 instructions: 810000001 cycles: 1622117336 heartbeat IPC: 0.471173 cumulative IPC: 0.451648 (Simulation time: 0 hr 27 min 0 sec) 
Heartbeat CPU 0 instructions: 820000001 cycles: 1643961611 heartbeat IPC: 0.457786 cumulative IPC: 0.451732 (Simulation time: 0 hr 27 min 20 sec) 
Heartbeat CPU 0 instructions: 830000001 cycles: 1665602020 heartbeat IPC: 0.462098 cumulative IPC: 0.451871 (Simulation time: 0 hr 27 min 39 sec) 
Heartbeat CPU 0 instructions: 840000003 cycles: 1687189176 heartbeat IPC: 0.463239 cumulative IPC: 0.452021 (Simulation time: 0 hr 27 min 59 sec) 
Heartbeat CPU 0 instructions: 850000003 cycles: 1709020878 heartbeat IPC: 0.45805 cumulative IPC: 0.4521 (Simulation time: 0 hr 28 min 19 sec) 
Heartbeat CPU 0 instructions: 860000002 cycles: 1730204557 heartbeat IPC: 0.472061 cumulative IPC: 0.452352 (Simulation time: 0 hr 28 min 38 sec) 
Heartbeat CPU 0 instructions: 870000000 cycles: 1751485756 heartbeat IPC: 0.469898 cumulative IPC: 0.452571 (Simulation time: 0 hr 28 min 58 sec) 
Heartbeat CPU 0 instructions: 880000000 cycles: 1773008872 heartbeat IPC: 0.464617 cumulative IPC: 0.452722 (Simulation time: 0 hr 29 min 18 sec) 
Heartbeat CPU 0 instructions: 890000001 cycles: 1794247707 heartbeat IPC: 0.470836 cumulative IPC: 0.452943 (Simulation time: 0 hr 29 min 37 sec) 
Heartbeat CPU 0 instructions: 900000000 cycles: 1815695788 heartbeat IPC: 0.466242 cumulative IPC: 0.453104 (Simulation time: 0 hr 29 min 57 sec) 
Heartbeat CPU 0 instructions: 910000000 cycles: 1837292711 heartbeat IPC: 0.463029 cumulative IPC: 0.453224 (Simulation time: 0 hr 30 min 17 sec) 
Heartbeat CPU 0 instructions: 920000000 cycles: 1858539387 heartbeat IPC: 0.470662 cumulative IPC: 0.453429 (Simulation time: 0 hr 30 min 36 sec) 
Heartbeat CPU 0 instructions: 930000001 cycles: 1880025311 heartbeat IPC: 0.465421 cumulative IPC: 0.45357 (Simulation time: 0 hr 30 min 56 sec) 
Heartbeat CPU 0 instructions: 940000001 cycles: 1901544863 heartbeat IPC: 0.464694 cumulative IPC: 0.453699 (Simulation time: 0 hr 31 min 16 sec) 
Heartbeat CPU 0 instructions: 950000000 cycles: 1922793529 heartbeat IPC: 0.470618 cumulative IPC: 0.453891 (Simulation time: 0 hr 31 min 35 sec) 
Heartbeat CPU 0 instructions: 960000002 cycles: 1944311865 heartbeat IPC: 0.46472 cumulative IPC: 0.454014 (Simulation time: 0 hr 31 min 55 sec) 
Heartbeat CPU 0 instructions: 970000001 cycles: 1965933474 heartbeat IPC: 0.4625 cumulative IPC: 0.45411 (Simulation time: 0 hr 32 min 15 sec) 
Heartbeat CPU 0 instructions: 980000001 cycles: 1987175081 heartbeat IPC: 0.470774 cumulative IPC: 0.454293 (Simulation time: 0 hr 32 min 35 sec) 
Heartbeat CPU 0 instructions: 990000000 cycles: 2008832980 heartbeat IPC: 0.461725 cumulative IPC: 0.454375 (Simulation time: 0 hr 32 min 55 sec) 
Heartbeat CPU 0 instructions: 1000000000 cycles: 2030235154 heartbeat IPC: 0.467242 cumulative IPC: 0.454514 (Simulation time: 0 hr 33 min 14 sec) 
Heartbeat CPU 0 instructions: 1010000001 cycles: 2051440023 heartbeat IPC: 0.47159 cumulative IPC: 0.454695 (Simulation time: 0 hr 33 min 34 sec) 
Heartbeat CPU 0 instructions: 1020000002 cycles: 2072979362 heartbeat IPC: 0.464267 cumulative IPC: 0.454797 (Simulation time: 0 hr 33 min 54 sec) 
Heartbeat CPU 0 instructions: 1030000002 cycles: 2094256420 heartbeat IPC: 0.46999 cumulative IPC: 0.454955 (Simulation time: 0 hr 34 min 13 sec) 
Heartbeat CPU 0 instructions: 1040000002 cycles: 2115507208 heartbeat IPC: 0.470571 cumulative IPC: 0.455115 (Simulation time: 0 hr 34 min 33 sec) 
Heartbeat CPU 0 instructions: 1050000000 cycles: 2137121440 heartbeat IPC: 0.462658 cumulative IPC: 0.455194 (Simulation time: 0 hr 34 min 53 sec) 
Heartbeat CPU 0 instructions: 1060000000 cycles: 2158395498 heartbeat IPC: 0.470056 cumulative IPC: 0.455344 (Simulation time: 0 hr 35 min 12 sec) 
Heartbeat CPU 0 instructions: 1070000003 cycles: 2179637407 heartbeat IPC: 0.470768 cumulative IPC: 0.455497 (Simulation time: 0 hr 35 min 32 sec) 
Heartbeat CPU 0 instructions: 1080000000 cycles: 2201298923 heartbeat IPC: 0.461648 cumulative IPC: 0.455559 (Simulation time: 0 hr 35 min 52 sec) 
Heartbeat CPU 0 instructions: 1090000000 cycles: 2222618618 heartbeat IPC: 0.46905 cumulative IPC: 0.455692 (Simulation time: 0 hr 36 min 11 sec) 
Heartbeat CPU 0 instructions: 1100000000 cycles: 2243862761 heartbeat IPC: 0.470718 cumulative IPC: 0.455837 (Simulation time: 0 hr 36 min 31 sec) 
Finished CPU 0 instructions: 1000000000 cycles: 2193765695 cumulative IPC: 0.455837 (Simulation time: 0 hr 36 min 31 sec) 

ChampSim completed all CPUs

Region of Interest Statistics

CPU 0 cumulative IPC: 0.455837 instructions: 1000000000 cycles: 2193765695
L1D TOTAL     ACCESS:  302974907  HIT:  286159162  MISS:   16815745
L1D LOAD      ACCESS:  203149589  HIT:  186344357  MISS:   16805232
L1D RFO       ACCESS:   99825318  HIT:   99814805  MISS:      10513
L1D PREFETCH  ACCESS:          0  HIT:          0  MISS:          0
L1D WRITEBACK ACCESS:          0  HIT:          0  MISS:          0
L1D PREFETCH  REQUESTED:          0  ISSUED:          0  USEFUL:          0  USELESS:          0
L1D AVERAGE MISS LATENCY: 77.3079 cycles
L1I TOTAL     ACCESS:  151448431  HIT:  151448430  MISS:          1
L1I LOAD      ACCESS:  151448431  HIT:  151448430  MISS:          1
L1I RFO       ACCESS:          0  HIT:          0  MISS:          0
L1I PREFETCH  ACCESS:          0  HIT:          0  MISS:          0
L1I WRITEBACK ACCESS:          0  HIT:          0  MISS:          0
L1I PREFETCH  REQUESTED:          0  ISSUED:          0  USEFUL:          0  USELESS:          0
L1I AVERAGE MISS LATENCY: 235 cycles
L2C TOTAL     ACCESS:   16983975  HIT:    8599738  MISS:    8384237
L2C LOAD      ACCESS:   16805233  HIT:    8429177  MISS:    8376056
L2C RFO       ACCESS:      10513  HIT:       2376  MISS:       8137
L2C PREFETCH  ACCESS:          0  HIT:          0  MISS:          0
L2C WRITEBACK ACCESS:     168229  HIT:     168185  MISS:         44
L2C PREFETCH  REQUESTED:          0  ISSUED:          0  USEFUL:          0  USELESS:          0
L2C AVERAGE MISS LATENCY: 130.875 cycles
LLC TOTAL     ACCESS:    8465576  HIT:     100000  MISS:    8365576
LLC LOAD      ACCESS:    8376056  HIT:      35456  MISS:    8340600
LLC RFO       ACCESS:       8137  HIT:        134  MISS:       8003
LLC PREFETCH  ACCESS:          0  HIT:          0  MISS:          0
LLC WRITEBACK ACCESS:      81383  HIT:      64410  MISS:      16973
LLC PREFETCH  REQUESTED:          0  ISSUED:          0  USEFUL:          0  USELESS:          0
LLC AVERAGE MISS LATENCY: 91.0566 cycles
Major fault: 0 Minor fault: 12421

DRAM Statistics
 CHANNEL 0
 RQ ROW_BUFFER_HIT:    7670022  ROW_BUFFER_MISS:     678581
 DBUS_CONGESTED:      54843
 WQ ROW_BUFFER_HIT:      24841  ROW_BUFFER_MISS:      55737  FULL:          0

 AVG_CONGESTED_CYCLE: 4

CPU 0 Branch Prediction Accuracy: 94.6645% MPKI: 12.6908 Average ROB Occupancy at Mispredict: 52.4914

Branch types
NOT_BRANCH: 762143497 76.2143%
BRANCH_DIRECT_JUMP: 24833668 2.48337%
BRANCH_INDIRECT: 0 0%
BRANCH_CONDITIONAL: 188060658 18.8061%
BRANCH_DIRECT_CALL: 12480831 1.24808%
BRANCH_INDIRECT_CALL: 86 8.6e-06%
BRANCH_RETURN: 12480917 1.24809%
BRANCH_OTHER: 0 0%

