
*** ChampSim Multicore Out-of-Order Simulator ***

Warmup Instructions: 100000000
Simulation Instructions: 1000000000
Number of CPUs: 1
LLC sets: 2048
LLC ways: 16
Off-chip DRAM Size: 4096 MB Channels: 1 Width: 64-bit Data Rate: 3200 MT/s

CPU 0 runs /scratch/user/kevin.weston/dpc3-traces/602.champsimtrace.xz
CPU 0 Bimodal branch predictor
Initialize SRRIP state
Heartbeat CPU 0 instructions: 10000001 cycles: 5015427 heartbeat IPC: 1.99385 cumulative IPC: 1.99385 (Simulation time: 0 hr 0 min 23 sec) 
Heartbeat CPU 0 instructions: 20000002 cycles: 10021554 heartbeat IPC: 1.99755 cumulative IPC: 1.9957 (Simulation time: 0 hr 0 min 47 sec) 
Heartbeat CPU 0 instructions: 30000000 cycles: 15029823 heartbeat IPC: 1.9967 cumulative IPC: 1.99603 (Simulation time: 0 hr 1 min 10 sec) 
Heartbeat CPU 0 instructions: 40000002 cycles: 20050933 heartbeat IPC: 1.99159 cumulative IPC: 1.99492 (Simulation time: 0 hr 1 min 33 sec) 
Heartbeat CPU 0 instructions: 50000000 cycles: 25061986 heartbeat IPC: 1.99559 cumulative IPC: 1.99505 (Simulation time: 0 hr 1 min 56 sec) 
Heartbeat CPU 0 instructions: 60000000 cycles: 30079040 heartbeat IPC: 1.9932 cumulative IPC: 1.99474 (Simulation time: 0 hr 2 min 20 sec) 
Heartbeat CPU 0 instructions: 70000002 cycles: 35083853 heartbeat IPC: 1.99808 cumulative IPC: 1.99522 (Simulation time: 0 hr 2 min 43 sec) 
Heartbeat CPU 0 instructions: 80000000 cycles: 40087209 heartbeat IPC: 1.99866 cumulative IPC: 1.99565 (Simulation time: 0 hr 3 min 6 sec) 
Heartbeat CPU 0 instructions: 90000000 cycles: 45099268 heartbeat IPC: 1.99519 cumulative IPC: 1.9956 (Simulation time: 0 hr 3 min 29 sec) 
Heartbeat CPU 0 instructions: 100000000 cycles: 50096841 heartbeat IPC: 2.00097 cumulative IPC: 1.99613 (Simulation time: 0 hr 3 min 51 sec) 

Warmup complete CPU 0 instructions: 100000004 cycles: 50096842 (Simulation time: 0 hr 3 min 51 sec) 

Heartbeat CPU 0 instructions: 110000000 cycles: 71507481 heartbeat IPC: 0.467057 cumulative IPC: 0.467057 (Simulation time: 0 hr 4 min 10 sec) 
Heartbeat CPU 0 instructions: 120000000 cycles: 92801287 heartbeat IPC: 0.46962 cumulative IPC: 0.468335 (Simulation time: 0 hr 4 min 30 sec) 
Heartbeat CPU 0 instructions: 130000003 cycles: 115733861 heartbeat IPC: 0.436061 cumulative IPC: 0.457059 (Simulation time: 0 hr 4 min 51 sec) 
Heartbeat CPU 0 instructions: 140000001 cycles: 137509184 heartbeat IPC: 0.459235 cumulative IPC: 0.457601 (Simulation time: 0 hr 5 min 10 sec) 
Heartbeat CPU 0 instructions: 150000000 cycles: 159174975 heartbeat IPC: 0.461557 cumulative IPC: 0.458387 (Simulation time: 0 hr 5 min 30 sec) 
Heartbeat CPU 0 instructions: 160000003 cycles: 180905226 heartbeat IPC: 0.460188 cumulative IPC: 0.458686 (Simulation time: 0 hr 5 min 50 sec) 
Heartbeat CPU 0 instructions: 170000000 cycles: 202199319 heartbeat IPC: 0.469614 cumulative IPC: 0.460216 (Simulation time: 0 hr 6 min 9 sec) 
Heartbeat CPU 0 instructions: 180000000 cycles: 223724281 heartbeat IPC: 0.464577 cumulative IPC: 0.460757 (Simulation time: 0 hr 6 min 29 sec) 
Heartbeat CPU 0 instructions: 190000002 cycles: 260870423 heartbeat IPC: 0.269207 cumulative IPC: 0.426998 (Simulation time: 0 hr 6 min 50 sec) 
Heartbeat CPU 0 instructions: 200000000 cycles: 287575161 heartbeat IPC: 0.374465 cumulative IPC: 0.421091 (Simulation time: 0 hr 7 min 10 sec) 
Heartbeat CPU 0 instructions: 210000000 cycles: 308947731 heartbeat IPC: 0.467889 cumulative IPC: 0.424955 (Simulation time: 0 hr 7 min 30 sec) 
Heartbeat CPU 0 instructions: 220000000 cycles: 330625435 heartbeat IPC: 0.461303 cumulative IPC: 0.427764 (Simulation time: 0 hr 7 min 49 sec) 
Heartbeat CPU 0 instructions: 230000002 cycles: 351956581 heartbeat IPC: 0.468798 cumulative IPC: 0.430664 (Simulation time: 0 hr 8 min 9 sec) 
Heartbeat CPU 0 instructions: 240000001 cycles: 373285581 heartbeat IPC: 0.468845 cumulative IPC: 0.433183 (Simulation time: 0 hr 8 min 28 sec) 
Heartbeat CPU 0 instructions: 250000000 cycles: 395069192 heartbeat IPC: 0.459061 cumulative IPC: 0.434817 (Simulation time: 0 hr 8 min 48 sec) 
Heartbeat CPU 0 instructions: 260000000 cycles: 416400295 heartbeat IPC: 0.468799 cumulative IPC: 0.436796 (Simulation time: 0 hr 9 min 7 sec) 
Heartbeat CPU 0 instructions: 270000000 cycles: 437950840 heartbeat IPC: 0.464025 cumulative IPC: 0.438309 (Simulation time: 0 hr 9 min 28 sec) 
Heartbeat CPU 0 instructions: 280000001 cycles: 459491623 heartbeat IPC: 0.464236 cumulative IPC: 0.439673 (Simulation time: 0 hr 9 min 47 sec) 
Heartbeat CPU 0 instructions: 290000002 cycles: 480784240 heartbeat IPC: 0.469646 cumulative IPC: 0.441155 (Simulation time: 0 hr 10 min 7 sec) 
Heartbeat CPU 0 instructions: 300000000 cycles: 502336920 heartbeat IPC: 0.463979 cumulative IPC: 0.442243 (Simulation time: 0 hr 10 min 26 sec) 
Heartbeat CPU 0 instructions: 310000000 cycles: 523652045 heartbeat IPC: 0.46915 cumulative IPC: 0.443454 (Simulation time: 0 hr 10 min 46 sec) 
Heartbeat CPU 0 instructions: 320000001 cycles: 544999107 heartbeat IPC: 0.468449 cumulative IPC: 0.444532 (Simulation time: 0 hr 11 min 5 sec) 
Heartbeat CPU 0 instructions: 330000000 cycles: 566539781 heartbeat IPC: 0.464238 cumulative IPC: 0.445354 (Simulation time: 0 hr 11 min 25 sec) 
Heartbeat CPU 0 instructions: 340000002 cycles: 587841488 heartbeat IPC: 0.469446 cumulative IPC: 0.446308 (Simulation time: 0 hr 11 min 44 sec) 
Heartbeat CPU 0 instructions: 350000000 cycles: 609224035 heartbeat IPC: 0.467671 cumulative IPC: 0.447125 (Simulation time: 0 hr 12 min 4 sec) 
Heartbeat CPU 0 instructions: 360000000 cycles: 630817522 heartbeat IPC: 0.463103 cumulative IPC: 0.44772 (Simulation time: 0 hr 12 min 23 sec) 
Heartbeat CPU 0 instructions: 370000000 cycles: 652224420 heartbeat IPC: 0.467139 cumulative IPC: 0.44841 (Simulation time: 0 hr 12 min 43 sec) 
Heartbeat CPU 0 instructions: 380000000 cycles: 673640149 heartbeat IPC: 0.466947 cumulative IPC: 0.449047 (Simulation time: 0 hr 13 min 2 sec) 
Heartbeat CPU 0 instructions: 390000000 cycles: 695177697 heartbeat IPC: 0.464305 cumulative IPC: 0.449556 (Simulation time: 0 hr 13 min 23 sec) 
Heartbeat CPU 0 instructions: 400000002 cycles: 716758888 heartbeat IPC: 0.463367 cumulative IPC: 0.450003 (Simulation time: 0 hr 13 min 42 sec) 
Heartbeat CPU 0 instructions: 410000002 cycles: 738061449 heartbeat IPC: 0.469427 cumulative IPC: 0.450605 (Simulation time: 0 hr 14 min 2 sec) 
Heartbeat CPU 0 instructions: 420000000 cycles: 761092992 heartbeat IPC: 0.434187 cumulative IPC: 0.450073 (Simulation time: 0 hr 14 min 22 sec) 
Heartbeat CPU 0 instructions: 430000001 cycles: 782512223 heartbeat IPC: 0.46687 cumulative IPC: 0.450564 (Simulation time: 0 hr 14 min 41 sec) 
Heartbeat CPU 0 instructions: 440000000 cycles: 803867301 heartbeat IPC: 0.468273 cumulative IPC: 0.451066 (Simulation time: 0 hr 15 min 1 sec) 
Heartbeat CPU 0 instructions: 450000002 cycles: 825452601 heartbeat IPC: 0.463278 cumulative IPC: 0.451406 (Simulation time: 0 hr 15 min 20 sec) 
Heartbeat CPU 0 instructions: 460000000 cycles: 846739782 heartbeat IPC: 0.469766 cumulative IPC: 0.451896 (Simulation time: 0 hr 15 min 40 sec) 
Heartbeat CPU 0 instructions: 470000000 cycles: 868306332 heartbeat IPC: 0.463681 cumulative IPC: 0.452207 (Simulation time: 0 hr 16 min 0 sec) 
Heartbeat CPU 0 instructions: 480000003 cycles: 890601929 heartbeat IPC: 0.448519 cumulative IPC: 0.452109 (Simulation time: 0 hr 16 min 19 sec) 
Heartbeat CPU 0 instructions: 490000000 cycles: 911906373 heartbeat IPC: 0.469386 cumulative IPC: 0.452536 (Simulation time: 0 hr 16 min 39 sec) 
Heartbeat CPU 0 instructions: 500000003 cycles: 933649371 heartbeat IPC: 0.459918 cumulative IPC: 0.452718 (Simulation time: 0 hr 16 min 59 sec) 
Heartbeat CPU 0 instructions: 510000000 cycles: 954912130 heartbeat IPC: 0.470306 cumulative IPC: 0.453131 (Simulation time: 0 hr 17 min 18 sec) 
Heartbeat CPU 0 instructions: 520000000 cycles: 976375601 heartbeat IPC: 0.465908 cumulative IPC: 0.453427 (Simulation time: 0 hr 17 min 38 sec) 
Heartbeat CPU 0 instructions: 530000000 cycles: 997786088 heartbeat IPC: 0.467061 cumulative IPC: 0.453735 (Simulation time: 0 hr 17 min 57 sec) 
Heartbeat CPU 0 instructions: 540000002 cycles: 1019068780 heartbeat IPC: 0.469865 cumulative IPC: 0.45409 (Simulation time: 0 hr 18 min 17 sec) 
Heartbeat CPU 0 instructions: 550000000 cycles: 1040333346 heartbeat IPC: 0.470266 cumulative IPC: 0.454437 (Simulation time: 0 hr 18 min 36 sec) 
Heartbeat CPU 0 instructions: 560000003 cycles: 1063697978 heartbeat IPC: 0.427997 cumulative IPC: 0.453827 (Simulation time: 0 hr 18 min 56 sec) 
Heartbeat CPU 0 instructions: 570000001 cycles: 1085491089 heartbeat IPC: 0.458861 cumulative IPC: 0.453933 (Simulation time: 0 hr 19 min 16 sec) 
Heartbeat CPU 0 instructions: 580000000 cycles: 1107320224 heartbeat IPC: 0.458103 cumulative IPC: 0.454019 (Simulation time: 0 hr 19 min 36 sec) 
Heartbeat CPU 0 instructions: 590000000 cycles: 1128679826 heartbeat IPC: 0.468174 cumulative IPC: 0.4543 (Simulation time: 0 hr 19 min 56 sec) 
Heartbeat CPU 0 instructions: 600000000 cycles: 1149959605 heartbeat IPC: 0.46993 cumulative IPC: 0.454602 (Simulation time: 0 hr 20 min 15 sec) 
Heartbeat CPU 0 instructions: 610000001 cycles: 1171413594 heartbeat IPC: 0.466114 cumulative IPC: 0.454822 (Simulation time: 0 hr 20 min 35 sec) 
Heartbeat CPU 0 instructions: 620000001 cycles: 1192657222 heartbeat IPC: 0.470729 cumulative IPC: 0.455118 (Simulation time: 0 hr 20 min 54 sec) 
Heartbeat CPU 0 instructions: 630000000 cycles: 1213868660 heartbeat IPC: 0.471444 cumulative IPC: 0.455416 (Simulation time: 0 hr 21 min 14 sec) 
Heartbeat CPU 0 instructions: 640000002 cycles: 1235386946 heartbeat IPC: 0.464721 cumulative IPC: 0.455585 (Simulation time: 0 hr 21 min 33 sec) 
Heartbeat CPU 0 instructions: 650000001 cycles: 1256686578 heartbeat IPC: 0.469492 cumulative IPC: 0.45583 (Simulation time: 0 hr 21 min 53 sec) 
Heartbeat CPU 0 instructions: 660000000 cycles: 1278016392 heartbeat IPC: 0.468827 cumulative IPC: 0.456056 (Simulation time: 0 hr 22 min 12 sec) 
Heartbeat CPU 0 instructions: 670000001 cycles: 1299590978 heartbeat IPC: 0.463508 cumulative IPC: 0.456185 (Simulation time: 0 hr 22 min 32 sec) 
Heartbeat CPU 0 instructions: 680000000 cycles: 1320952599 heartbeat IPC: 0.468129 cumulative IPC: 0.456385 (Simulation time: 0 hr 22 min 52 sec) 
Heartbeat CPU 0 instructions: 690000000 cycles: 1342280491 heartbeat IPC: 0.46887 cumulative IPC: 0.456591 (Simulation time: 0 hr 23 min 11 sec) 
Heartbeat CPU 0 instructions: 700000003 cycles: 1363827993 heartbeat IPC: 0.464091 cumulative IPC: 0.456714 (Simulation time: 0 hr 23 min 31 sec) 
Heartbeat CPU 0 instructions: 710000001 cycles: 1385124171 heartbeat IPC: 0.469568 cumulative IPC: 0.456919 (Simulation time: 0 hr 23 min 51 sec) 
Heartbeat CPU 0 instructions: 720000000 cycles: 1406566908 heartbeat IPC: 0.466358 cumulative IPC: 0.457069 (Simulation time: 0 hr 24 min 10 sec) 
Heartbeat CPU 0 instructions: 730000000 cycles: 1428463627 heartbeat IPC: 0.456689 cumulative IPC: 0.457063 (Simulation time: 0 hr 24 min 30 sec) 
Heartbeat CPU 0 instructions: 740000003 cycles: 1450076027 heartbeat IPC: 0.462697 cumulative IPC: 0.45715 (Simulation time: 0 hr 24 min 50 sec) 
Heartbeat CPU 0 instructions: 750000003 cycles: 1471826090 heartbeat IPC: 0.459769 cumulative IPC: 0.45719 (Simulation time: 0 hr 25 min 9 sec) 
Heartbeat CPU 0 instructions: 760000001 cycles: 1508800789 heartbeat IPC: 0.270455 cumulative IPC: 0.452456 (Simulation time: 0 hr 25 min 31 sec) 
Heartbeat CPU 0 instructions: 770000000 cycles: 1536496170 heartbeat IPC: 0.361071 cumulative IPC: 0.450754 (Simulation time: 0 hr 25 min 51 sec) 
Heartbeat CPU 0 instructions: 780000001 cycles: 1557790484 heartbeat IPC: 0.469609 cumulative IPC: 0.45102 (Simulation time: 0 hr 26 min 11 sec) 
Heartbeat CPU 0 instructions: 790000003 cycles: 1579267510 heartbeat IPC: 0.465614 cumulative IPC: 0.451225 (Simulation time: 0 hr 26 min 30 sec) 
Heartbeat CPU 0 instructions: 800000000 cycles: 1600787212 heartbeat IPC: 0.46469 cumulative IPC: 0.451412 (Simulation time: 0 hr 26 min 50 sec) 
Heartbeat CPU 0 instructions: 810000001 cycles: 1622017436 heartbeat IPC: 0.471027 cumulative IPC: 0.451677 (Simulation time: 0 hr 27 min 10 sec) 
Heartbeat CPU 0 instructions: 820000001 cycles: 1643847830 heartbeat IPC: 0.458077 cumulative IPC: 0.451764 (Simulation time: 0 hr 27 min 31 sec) 
Heartbeat CPU 0 instructions: 830000001 cycles: 1665494474 heartbeat IPC: 0.461965 cumulative IPC: 0.451901 (Simulation time: 0 hr 27 min 51 sec) 
Heartbeat CPU 0 instructions: 840000003 cycles: 1687090525 heartbeat IPC: 0.463048 cumulative IPC: 0.452048 (Simulation time: 0 hr 28 min 11 sec) 
Heartbeat CPU 0 instructions: 850000003 cycles: 1708663339 heartbeat IPC: 0.463546 cumulative IPC: 0.452198 (Simulation time: 0 hr 28 min 31 sec) 
Heartbeat CPU 0 instructions: 860000002 cycles: 1730107386 heartbeat IPC: 0.46633 cumulative IPC: 0.452378 (Simulation time: 0 hr 28 min 51 sec) 
Heartbeat CPU 0 instructions: 870000000 cycles: 1751385439 heartbeat IPC: 0.469968 cumulative IPC: 0.452598 (Simulation time: 0 hr 29 min 11 sec) 
Heartbeat CPU 0 instructions: 880000000 cycles: 1772888770 heartbeat IPC: 0.465044 cumulative IPC: 0.452753 (Simulation time: 0 hr 29 min 31 sec) 
Heartbeat CPU 0 instructions: 890000001 cycles: 1794150864 heartbeat IPC: 0.470321 cumulative IPC: 0.452968 (Simulation time: 0 hr 29 min 51 sec) 
Heartbeat CPU 0 instructions: 900000000 cycles: 1815590436 heartbeat IPC: 0.466427 cumulative IPC: 0.453131 (Simulation time: 0 hr 30 min 11 sec) 
Heartbeat CPU 0 instructions: 910000000 cycles: 1837086661 heartbeat IPC: 0.465198 cumulative IPC: 0.453276 (Simulation time: 0 hr 30 min 31 sec) 
Heartbeat CPU 0 instructions: 920000000 cycles: 1858440914 heartbeat IPC: 0.468291 cumulative IPC: 0.453454 (Simulation time: 0 hr 30 min 51 sec) 
Heartbeat CPU 0 instructions: 930000001 cycles: 1879917742 heartbeat IPC: 0.465618 cumulative IPC: 0.453596 (Simulation time: 0 hr 31 min 11 sec) 
Heartbeat CPU 0 instructions: 940000001 cycles: 1901371767 heartbeat IPC: 0.466113 cumulative IPC: 0.453741 (Simulation time: 0 hr 31 min 31 sec) 
Heartbeat CPU 0 instructions: 950000000 cycles: 1922699826 heartbeat IPC: 0.468866 cumulative IPC: 0.453914 (Simulation time: 0 hr 31 min 51 sec) 
Heartbeat CPU 0 instructions: 960000002 cycles: 1944206610 heartbeat IPC: 0.46497 cumulative IPC: 0.454039 (Simulation time: 0 hr 32 min 11 sec) 
Heartbeat CPU 0 instructions: 970000001 cycles: 1965777288 heartbeat IPC: 0.463592 cumulative IPC: 0.454147 (Simulation time: 0 hr 32 min 31 sec) 
Heartbeat CPU 0 instructions: 980000001 cycles: 1987084022 heartbeat IPC: 0.469335 cumulative IPC: 0.454314 (Simulation time: 0 hr 32 min 51 sec) 
Heartbeat CPU 0 instructions: 990000000 cycles: 2008726898 heartbeat IPC: 0.462046 cumulative IPC: 0.454399 (Simulation time: 0 hr 33 min 11 sec) 
Heartbeat CPU 0 instructions: 1000000000 cycles: 2030010146 heartbeat IPC: 0.469853 cumulative IPC: 0.454565 (Simulation time: 0 hr 33 min 31 sec) 
Heartbeat CPU 0 instructions: 1010000001 cycles: 2051349562 heartbeat IPC: 0.468616 cumulative IPC: 0.454715 (Simulation time: 0 hr 33 min 51 sec) 
Heartbeat CPU 0 instructions: 1020000002 cycles: 2072872880 heartbeat IPC: 0.464612 cumulative IPC: 0.45482 (Simulation time: 0 hr 34 min 11 sec) 
Heartbeat CPU 0 instructions: 1030000002 cycles: 2094150268 heartbeat IPC: 0.469983 cumulative IPC: 0.454978 (Simulation time: 0 hr 34 min 30 sec) 
Heartbeat CPU 0 instructions: 1040000002 cycles: 2115411458 heartbeat IPC: 0.470341 cumulative IPC: 0.455136 (Simulation time: 0 hr 34 min 50 sec) 
Heartbeat CPU 0 instructions: 1050000000 cycles: 2137013395 heartbeat IPC: 0.462921 cumulative IPC: 0.455217 (Simulation time: 0 hr 35 min 10 sec) 
Heartbeat CPU 0 instructions: 1060000000 cycles: 2158296987 heartbeat IPC: 0.469846 cumulative IPC: 0.455365 (Simulation time: 0 hr 35 min 30 sec) 
Heartbeat CPU 0 instructions: 1070000003 cycles: 2179541126 heartbeat IPC: 0.470718 cumulative IPC: 0.455518 (Simulation time: 0 hr 35 min 50 sec) 
Heartbeat CPU 0 instructions: 1080000000 cycles: 2201190580 heartbeat IPC: 0.461905 cumulative IPC: 0.455582 (Simulation time: 0 hr 36 min 10 sec) 
Heartbeat CPU 0 instructions: 1090000000 cycles: 2222497186 heartbeat IPC: 0.469338 cumulative IPC: 0.455717 (Simulation time: 0 hr 36 min 30 sec) 
Heartbeat CPU 0 instructions: 1100000000 cycles: 2243764906 heartbeat IPC: 0.470196 cumulative IPC: 0.455857 (Simulation time: 0 hr 36 min 49 sec) 
Finished CPU 0 instructions: 1000000000 cycles: 2193668067 cumulative IPC: 0.455857 (Simulation time: 0 hr 36 min 49 sec) 

ChampSim completed all CPUs

Region of Interest Statistics

CPU 0 cumulative IPC: 0.455857 instructions: 1000000000 cycles: 2193668067
L1D TOTAL     ACCESS:  302975080  HIT:  286159334  MISS:   16815746
L1D LOAD      ACCESS:  203149752  HIT:  186344519  MISS:   16805233
L1D RFO       ACCESS:   99825328  HIT:   99814815  MISS:      10513
L1D PREFETCH  ACCESS:          0  HIT:          0  MISS:          0
L1D WRITEBACK ACCESS:          0  HIT:          0  MISS:          0
L1D PREFETCH  REQUESTED:          0  ISSUED:          0  USEFUL:          0  USELESS:          0
L1D AVERAGE MISS LATENCY: 77.2968 cycles
L1I TOTAL     ACCESS:  151448386  HIT:  151448385  MISS:          1
L1I LOAD      ACCESS:  151448386  HIT:  151448385  MISS:          1
L1I RFO       ACCESS:          0  HIT:          0  MISS:          0
L1I PREFETCH  ACCESS:          0  HIT:          0  MISS:          0
L1I WRITEBACK ACCESS:          0  HIT:          0  MISS:          0
L1I PREFETCH  REQUESTED:          0  ISSUED:          0  USEFUL:          0  USELESS:          0
L1I AVERAGE MISS LATENCY: 235 cycles
L2C TOTAL     ACCESS:   16983976  HIT:    8599739  MISS:    8384237
L2C LOAD      ACCESS:   16805234  HIT:    8429178  MISS:    8376056
L2C RFO       ACCESS:      10513  HIT:       2376  MISS:       8137
L2C PREFETCH  ACCESS:          0  HIT:          0  MISS:          0
L2C WRITEBACK ACCESS:     168229  HIT:     168185  MISS:         44
L2C PREFETCH  REQUESTED:          0  ISSUED:          0  USEFUL:          0  USELESS:          0
L2C AVERAGE MISS LATENCY: 130.853 cycles
LLC TOTAL     ACCESS:    8465576  HIT:     102373  MISS:    8363203
LLC LOAD      ACCESS:    8376056  HIT:      37739  MISS:    8338317
LLC RFO       ACCESS:       8137  HIT:        166  MISS:       7971
LLC PREFETCH  ACCESS:          0  HIT:          0  MISS:          0
LLC WRITEBACK ACCESS:      81383  HIT:      64468  MISS:      16915
LLC PREFETCH  REQUESTED:          0  ISSUED:          0  USEFUL:          0  USELESS:          0
LLC AVERAGE MISS LATENCY: 91.0594 cycles
Major fault: 0 Minor fault: 12421

DRAM Statistics
 CHANNEL 0
 RQ ROW_BUFFER_HIT:    7667619  ROW_BUFFER_MISS:     678669
 DBUS_CONGESTED:      54645
 WQ ROW_BUFFER_HIT:      25286  ROW_BUFFER_MISS:      57050  FULL:          0

 AVG_CONGESTED_CYCLE: 4

CPU 0 Branch Prediction Accuracy: 94.6645% MPKI: 12.6908 Average ROB Occupancy at Mispredict: 52.4912

Branch types
NOT_BRANCH: 762143497 76.2143%
BRANCH_DIRECT_JUMP: 24833668 2.48337%
BRANCH_INDIRECT: 0 0%
BRANCH_CONDITIONAL: 188060658 18.8061%
BRANCH_DIRECT_CALL: 12480831 1.24808%
BRANCH_INDIRECT_CALL: 86 8.6e-06%
BRANCH_RETURN: 12480917 1.24809%
BRANCH_OTHER: 0 0%

