
*** ChampSim Multicore Out-of-Order Simulator ***

Warmup Instructions: 100000000
Simulation Instructions: 1000000000
Number of CPUs: 1
LLC sets: 2048
LLC ways: 16
Off-chip DRAM Size: 4096 MB Channels: 1 Width: 64-bit Data Rate: 3200 MT/s

CPU 0 runs /scratch/user/kevin.weston/dpc3-traces/602.champsimtrace.xz
CPU 0 Bimodal branch predictor
Initialize SHIP state
Assign rand_sets[0]: 454  LLC: 2048
rand_sets[0]: 454
Assign rand_sets[1]: 1662  LLC: 2048
rand_sets[1]: 1662
Assign rand_sets[2]: 1921  LLC: 2048
rand_sets[2]: 1921
Assign rand_sets[3]: 1131  LLC: 2048
rand_sets[3]: 1131
Assign rand_sets[4]: 331  LLC: 2048
rand_sets[4]: 331
Assign rand_sets[5]: 1531  LLC: 2048
rand_sets[5]: 1531
Assign rand_sets[6]: 482  LLC: 2048
rand_sets[6]: 482
Assign rand_sets[7]: 1275  LLC: 2048
rand_sets[7]: 1275
Assign rand_sets[8]: 1876  LLC: 2048
rand_sets[8]: 1876
Assign rand_sets[9]: 2038  LLC: 2048
rand_sets[9]: 2038
Assign rand_sets[10]: 701  LLC: 2048
rand_sets[10]: 701
Assign rand_sets[11]: 479  LLC: 2048
rand_sets[11]: 479
Assign rand_sets[12]: 892  LLC: 2048
rand_sets[12]: 892
Assign rand_sets[13]: 1820  LLC: 2048
rand_sets[13]: 1820
Assign rand_sets[14]: 1505  LLC: 2048
rand_sets[14]: 1505
Assign rand_sets[15]: 1159  LLC: 2048
rand_sets[15]: 1159
Assign rand_sets[16]: 513  LLC: 2048
rand_sets[16]: 513
Assign rand_sets[17]: 703  LLC: 2048
rand_sets[17]: 703
Assign rand_sets[18]: 561  LLC: 2048
rand_sets[18]: 561
Assign rand_sets[19]: 990  LLC: 2048
rand_sets[19]: 990
Assign rand_sets[20]: 342  LLC: 2048
rand_sets[20]: 342
Assign rand_sets[21]: 882  LLC: 2048
rand_sets[21]: 882
Assign rand_sets[22]: 15  LLC: 2048
rand_sets[22]: 15
Assign rand_sets[23]: 71  LLC: 2048
rand_sets[23]: 71
Assign rand_sets[24]: 1127  LLC: 2048
rand_sets[24]: 1127
Assign rand_sets[25]: 1382  LLC: 2048
rand_sets[25]: 1382
Assign rand_sets[26]: 647  LLC: 2048
rand_sets[26]: 647
Assign rand_sets[27]: 857  LLC: 2048
rand_sets[27]: 857
Assign rand_sets[28]: 1450  LLC: 2048
rand_sets[28]: 1450
Assign rand_sets[29]: 1160  LLC: 2048
rand_sets[29]: 1160
Assign rand_sets[30]: 1852  LLC: 2048
rand_sets[30]: 1852
Assign rand_sets[31]: 1881  LLC: 2048
rand_sets[31]: 1881
Assign rand_sets[32]: 1770  LLC: 2048
rand_sets[32]: 1770
Assign rand_sets[33]: 1622  LLC: 2048
rand_sets[33]: 1622
Assign rand_sets[34]: 275  LLC: 2048
rand_sets[34]: 275
Assign rand_sets[35]: 635  LLC: 2048
rand_sets[35]: 635
Assign rand_sets[36]: 466  LLC: 2048
rand_sets[36]: 466
Assign rand_sets[37]: 1413  LLC: 2048
rand_sets[37]: 1413
Assign rand_sets[38]: 417  LLC: 2048
rand_sets[38]: 417
Assign rand_sets[39]: 472  LLC: 2048
rand_sets[39]: 472
Assign rand_sets[40]: 1340  LLC: 2048
rand_sets[40]: 1340
Assign rand_sets[41]: 852  LLC: 2048
rand_sets[41]: 852
Assign rand_sets[42]: 1365  LLC: 2048
rand_sets[42]: 1365
Assign rand_sets[43]: 47  LLC: 2048
rand_sets[43]: 47
Assign rand_sets[44]: 823  LLC: 2048
rand_sets[44]: 823
Assign rand_sets[45]: 686  LLC: 2048
rand_sets[45]: 686
Assign rand_sets[46]: 1637  LLC: 2048
rand_sets[46]: 1637
Assign rand_sets[47]: 1115  LLC: 2048
rand_sets[47]: 1115
Assign rand_sets[48]: 986  LLC: 2048
rand_sets[48]: 986
Assign rand_sets[49]: 258  LLC: 2048
rand_sets[49]: 258
Assign rand_sets[50]: 633  LLC: 2048
rand_sets[50]: 633
Assign rand_sets[51]: 920  LLC: 2048
rand_sets[51]: 920
Assign rand_sets[52]: 204  LLC: 2048
rand_sets[52]: 204
Assign rand_sets[53]: 227  LLC: 2048
rand_sets[53]: 227
Assign rand_sets[54]: 1818  LLC: 2048
rand_sets[54]: 1818
Assign rand_sets[55]: 886  LLC: 2048
rand_sets[55]: 886
Assign rand_sets[56]: 1422  LLC: 2048
rand_sets[56]: 1422
Assign rand_sets[57]: 607  LLC: 2048
rand_sets[57]: 607
Assign rand_sets[58]: 217  LLC: 2048
rand_sets[58]: 217
Assign rand_sets[59]: 1945  LLC: 2048
rand_sets[59]: 1945
Assign rand_sets[60]: 143  LLC: 2048
rand_sets[60]: 143
Assign rand_sets[61]: 1311  LLC: 2048
rand_sets[61]: 1311
Assign rand_sets[62]: 319  LLC: 2048
rand_sets[62]: 319
Assign rand_sets[63]: 1846  LLC: 2048
rand_sets[63]: 1846
Assign rand_sets[64]: 238  LLC: 2048
rand_sets[64]: 238
Assign rand_sets[65]: 67  LLC: 2048
rand_sets[65]: 67
Assign rand_sets[66]: 1912  LLC: 2048
rand_sets[66]: 1912
Assign rand_sets[67]: 1613  LLC: 2048
rand_sets[67]: 1613
Assign rand_sets[68]: 1293  LLC: 2048
rand_sets[68]: 1293
Assign rand_sets[69]: 1018  LLC: 2048
rand_sets[69]: 1018
Assign rand_sets[70]: 1982  LLC: 2048
rand_sets[70]: 1982
Assign rand_sets[71]: 1702  LLC: 2048
rand_sets[71]: 1702
Assign rand_sets[72]: 1498  LLC: 2048
rand_sets[72]: 1498
Assign rand_sets[73]: 228  LLC: 2048
rand_sets[73]: 228
Assign rand_sets[74]: 1414  LLC: 2048
rand_sets[74]: 1414
Assign rand_sets[75]: 1166  LLC: 2048
rand_sets[75]: 1166
Assign rand_sets[76]: 732  LLC: 2048
rand_sets[76]: 732
Assign rand_sets[77]: 297  LLC: 2048
rand_sets[77]: 297
Assign rand_sets[78]: 1133  LLC: 2048
rand_sets[78]: 1133
Assign rand_sets[79]: 846  LLC: 2048
rand_sets[79]: 846
Assign rand_sets[80]: 767  LLC: 2048
rand_sets[80]: 767
Assign rand_sets[81]: 1878  LLC: 2048
rand_sets[81]: 1878
Assign rand_sets[82]: 993  LLC: 2048
rand_sets[82]: 993
Assign rand_sets[83]: 1392  LLC: 2048
rand_sets[83]: 1392
Assign rand_sets[84]: 1568  LLC: 2048
rand_sets[84]: 1568
Assign rand_sets[85]: 1787  LLC: 2048
rand_sets[85]: 1787
Assign rand_sets[86]: 399  LLC: 2048
rand_sets[86]: 399
Assign rand_sets[87]: 1201  LLC: 2048
rand_sets[87]: 1201
Assign rand_sets[88]: 856  LLC: 2048
rand_sets[88]: 856
Assign rand_sets[89]: 773  LLC: 2048
rand_sets[89]: 773
Assign rand_sets[90]: 1680  LLC: 2048
rand_sets[90]: 1680
Assign rand_sets[91]: 1477  LLC: 2048
rand_sets[91]: 1477
Assign rand_sets[92]: 9  LLC: 2048
rand_sets[92]: 9
Assign rand_sets[93]: 1500  LLC: 2048
rand_sets[93]: 1500
Assign rand_sets[94]: 851  LLC: 2048
rand_sets[94]: 851
Assign rand_sets[95]: 973  LLC: 2048
rand_sets[95]: 973
Assign rand_sets[96]: 938  LLC: 2048
rand_sets[96]: 938
Assign rand_sets[97]: 1851  LLC: 2048
rand_sets[97]: 1851
Assign rand_sets[98]: 1608  LLC: 2048
rand_sets[98]: 1608
Assign rand_sets[99]: 1945  LLC: 2048
Assign rand_sets[99]: 1106  LLC: 2048
rand_sets[99]: 1106
Assign rand_sets[100]: 979  LLC: 2048
rand_sets[100]: 979
Assign rand_sets[101]: 338  LLC: 2048
rand_sets[101]: 338
Assign rand_sets[102]: 1693  LLC: 2048
rand_sets[102]: 1693
Assign rand_sets[103]: 6  LLC: 2048
rand_sets[103]: 6
Assign rand_sets[104]: 671  LLC: 2048
rand_sets[104]: 671
Assign rand_sets[105]: 490  LLC: 2048
rand_sets[105]: 490
Assign rand_sets[106]: 1461  LLC: 2048
rand_sets[106]: 1461
Assign rand_sets[107]: 1730  LLC: 2048
rand_sets[107]: 1730
Assign rand_sets[108]: 1030  LLC: 2048
rand_sets[108]: 1030
Assign rand_sets[109]: 19  LLC: 2048
rand_sets[109]: 19
Assign rand_sets[110]: 920  LLC: 2048
Assign rand_sets[110]: 329  LLC: 2048
rand_sets[110]: 329
Assign rand_sets[111]: 1714  LLC: 2048
rand_sets[111]: 1714
Assign rand_sets[112]: 1  LLC: 2048
rand_sets[112]: 1
Assign rand_sets[113]: 1822  LLC: 2048
rand_sets[113]: 1822
Assign rand_sets[114]: 172  LLC: 2048
rand_sets[114]: 172
Assign rand_sets[115]: 1586  LLC: 2048
rand_sets[115]: 1586
Assign rand_sets[116]: 648  LLC: 2048
rand_sets[116]: 648
Assign rand_sets[117]: 1329  LLC: 2048
rand_sets[117]: 1329
Assign rand_sets[118]: 668  LLC: 2048
rand_sets[118]: 668
Assign rand_sets[119]: 1874  LLC: 2048
rand_sets[119]: 1874
Assign rand_sets[120]: 70  LLC: 2048
rand_sets[120]: 70
Assign rand_sets[121]: 661  LLC: 2048
rand_sets[121]: 661
Assign rand_sets[122]: 1649  LLC: 2048
rand_sets[122]: 1649
Assign rand_sets[123]: 1590  LLC: 2048
rand_sets[123]: 1590
Assign rand_sets[124]: 911  LLC: 2048
rand_sets[124]: 911
Assign rand_sets[125]: 1367  LLC: 2048
rand_sets[125]: 1367
Assign rand_sets[126]: 1782  LLC: 2048
rand_sets[126]: 1782
Assign rand_sets[127]: 569  LLC: 2048
rand_sets[127]: 569
Heartbeat CPU 0 instructions: 10000001 cycles: 5015423 heartbeat IPC: 1.99385 cumulative IPC: 1.99385 (Simulation time: 0 hr 0 min 23 sec) 
Heartbeat CPU 0 instructions: 20000002 cycles: 10021541 heartbeat IPC: 1.99756 cumulative IPC: 1.9957 (Simulation time: 0 hr 0 min 46 sec) 
Heartbeat CPU 0 instructions: 30000000 cycles: 15029874 heartbeat IPC: 1.99667 cumulative IPC: 1.99602 (Simulation time: 0 hr 1 min 9 sec) 
Heartbeat CPU 0 instructions: 40000002 cycles: 20052445 heartbeat IPC: 1.99101 cumulative IPC: 1.99477 (Simulation time: 0 hr 1 min 33 sec) 
Heartbeat CPU 0 instructions: 50000000 cycles: 25063383 heartbeat IPC: 1.99563 cumulative IPC: 1.99494 (Simulation time: 0 hr 1 min 56 sec) 
Heartbeat CPU 0 instructions: 60000000 cycles: 30081066 heartbeat IPC: 1.99295 cumulative IPC: 1.99461 (Simulation time: 0 hr 2 min 19 sec) 
Heartbeat CPU 0 instructions: 70000002 cycles: 35086313 heartbeat IPC: 1.9979 cumulative IPC: 1.99508 (Simulation time: 0 hr 2 min 41 sec) 
Heartbeat CPU 0 instructions: 80000000 cycles: 40090548 heartbeat IPC: 1.99831 cumulative IPC: 1.99548 (Simulation time: 0 hr 3 min 4 sec) 
Heartbeat CPU 0 instructions: 90000000 cycles: 45102497 heartbeat IPC: 1.99523 cumulative IPC: 1.99545 (Simulation time: 0 hr 3 min 28 sec) 
Heartbeat CPU 0 instructions: 100000000 cycles: 50091841 heartbeat IPC: 2.00427 cumulative IPC: 1.99633 (Simulation time: 0 hr 3 min 49 sec) 

Warmup complete CPU 0 instructions: 100000004 cycles: 50091842 (Simulation time: 0 hr 3 min 49 sec) 

Heartbeat CPU 0 instructions: 110000000 cycles: 70848310 heartbeat IPC: 0.481778 cumulative IPC: 0.481777 (Simulation time: 0 hr 4 min 9 sec) 
Heartbeat CPU 0 instructions: 120000000 cycles: 91105060 heartbeat IPC: 0.493663 cumulative IPC: 0.487648 (Simulation time: 0 hr 4 min 29 sec) 
Heartbeat CPU 0 instructions: 130000003 cycles: 113326362 heartbeat IPC: 0.450019 cumulative IPC: 0.474424 (Simulation time: 0 hr 4 min 50 sec) 
Heartbeat CPU 0 instructions: 140000001 cycles: 134245037 heartbeat IPC: 0.478042 cumulative IPC: 0.475324 (Simulation time: 0 hr 5 min 10 sec) 
Heartbeat CPU 0 instructions: 150000000 cycles: 154867698 heartbeat IPC: 0.484903 cumulative IPC: 0.477209 (Simulation time: 0 hr 5 min 30 sec) 
Heartbeat CPU 0 instructions: 160000003 cycles: 175951171 heartbeat IPC: 0.474305 cumulative IPC: 0.476723 (Simulation time: 0 hr 5 min 51 sec) 
Heartbeat CPU 0 instructions: 170000000 cycles: 196554381 heartbeat IPC: 0.485361 cumulative IPC: 0.477938 (Simulation time: 0 hr 6 min 11 sec) 
Heartbeat CPU 0 instructions: 180000000 cycles: 216840277 heartbeat IPC: 0.492953 cumulative IPC: 0.479765 (Simulation time: 0 hr 6 min 30 sec) 
Heartbeat CPU 0 instructions: 190000002 cycles: 253248161 heartbeat IPC: 0.274666 cumulative IPC: 0.443009 (Simulation time: 0 hr 6 min 52 sec) 
Heartbeat CPU 0 instructions: 200000000 cycles: 278541952 heartbeat IPC: 0.395354 cumulative IPC: 0.437732 (Simulation time: 0 hr 7 min 13 sec) 
Heartbeat CPU 0 instructions: 210000000 cycles: 299444695 heartbeat IPC: 0.478406 cumulative IPC: 0.441142 (Simulation time: 0 hr 7 min 33 sec) 
Heartbeat CPU 0 instructions: 220000000 cycles: 319959847 heartbeat IPC: 0.487445 cumulative IPC: 0.444662 (Simulation time: 0 hr 7 min 53 sec) 
Heartbeat CPU 0 instructions: 230000002 cycles: 340397898 heartbeat IPC: 0.489284 cumulative IPC: 0.447803 (Simulation time: 0 hr 8 min 13 sec) 
Heartbeat CPU 0 instructions: 240000001 cycles: 360671636 heartbeat IPC: 0.493249 cumulative IPC: 0.45077 (Simulation time: 0 hr 8 min 33 sec) 
Heartbeat CPU 0 instructions: 250000000 cycles: 381257226 heartbeat IPC: 0.485777 cumulative IPC: 0.452946 (Simulation time: 0 hr 8 min 53 sec) 
Heartbeat CPU 0 instructions: 260000000 cycles: 401743907 heartbeat IPC: 0.488122 cumulative IPC: 0.454995 (Simulation time: 0 hr 9 min 14 sec) 
Heartbeat CPU 0 instructions: 270000000 cycles: 422704960 heartbeat IPC: 0.477075 cumulative IPC: 0.456237 (Simulation time: 0 hr 9 min 34 sec) 
Heartbeat CPU 0 instructions: 280000001 cycles: 443198254 heartbeat IPC: 0.487965 cumulative IPC: 0.457891 (Simulation time: 0 hr 9 min 54 sec) 
Heartbeat CPU 0 instructions: 290000002 cycles: 463463630 heartbeat IPC: 0.493453 cumulative IPC: 0.459635 (Simulation time: 0 hr 10 min 14 sec) 
Heartbeat CPU 0 instructions: 300000000 cycles: 484432488 heartbeat IPC: 0.476898 cumulative IPC: 0.460468 (Simulation time: 0 hr 10 min 34 sec) 
Heartbeat CPU 0 instructions: 310000000 cycles: 505041719 heartbeat IPC: 0.485219 cumulative IPC: 0.461589 (Simulation time: 0 hr 10 min 54 sec) 
Heartbeat CPU 0 instructions: 320000001 cycles: 525284595 heartbeat IPC: 0.494001 cumulative IPC: 0.46297 (Simulation time: 0 hr 11 min 14 sec) 
Heartbeat CPU 0 instructions: 330000000 cycles: 546208829 heartbeat IPC: 0.477915 cumulative IPC: 0.4636 (Simulation time: 0 hr 11 min 34 sec) 
Heartbeat CPU 0 instructions: 340000002 cycles: 566907601 heartbeat IPC: 0.483121 cumulative IPC: 0.464382 (Simulation time: 0 hr 11 min 54 sec) 
Heartbeat CPU 0 instructions: 350000000 cycles: 587145401 heartbeat IPC: 0.494125 cumulative IPC: 0.465503 (Simulation time: 0 hr 12 min 14 sec) 
Heartbeat CPU 0 instructions: 360000000 cycles: 608140727 heartbeat IPC: 0.476296 cumulative IPC: 0.465909 (Simulation time: 0 hr 12 min 34 sec) 
Heartbeat CPU 0 instructions: 370000000 cycles: 628837928 heartbeat IPC: 0.483157 cumulative IPC: 0.466526 (Simulation time: 0 hr 12 min 54 sec) 
Heartbeat CPU 0 instructions: 380000000 cycles: 649081555 heartbeat IPC: 0.493983 cumulative IPC: 0.467454 (Simulation time: 0 hr 13 min 13 sec) 
Heartbeat CPU 0 instructions: 390000000 cycles: 670251455 heartbeat IPC: 0.472369 cumulative IPC: 0.467622 (Simulation time: 0 hr 13 min 34 sec) 
Heartbeat CPU 0 instructions: 400000002 cycles: 690991904 heartbeat IPC: 0.48215 cumulative IPC: 0.468092 (Simulation time: 0 hr 13 min 54 sec) 
Heartbeat CPU 0 instructions: 410000002 cycles: 711215952 heartbeat IPC: 0.494461 cumulative IPC: 0.468898 (Simulation time: 0 hr 14 min 14 sec) 
Heartbeat CPU 0 instructions: 420000000 cycles: 733330348 heartbeat IPC: 0.452194 cumulative IPC: 0.468358 (Simulation time: 0 hr 14 min 34 sec) 
Heartbeat CPU 0 instructions: 430000001 cycles: 753979484 heartbeat IPC: 0.484282 cumulative IPC: 0.468825 (Simulation time: 0 hr 14 min 54 sec) 
Heartbeat CPU 0 instructions: 440000000 cycles: 774219123 heartbeat IPC: 0.49408 cumulative IPC: 0.469531 (Simulation time: 0 hr 15 min 14 sec) 
Heartbeat CPU 0 instructions: 450000002 cycles: 795070231 heartbeat IPC: 0.479591 cumulative IPC: 0.469812 (Simulation time: 0 hr 15 min 34 sec) 
Heartbeat CPU 0 instructions: 460000000 cycles: 815764104 heartbeat IPC: 0.483235 cumulative IPC: 0.470175 (Simulation time: 0 hr 15 min 55 sec) 
Heartbeat CPU 0 instructions: 470000000 cycles: 836044829 heartbeat IPC: 0.493079 cumulative IPC: 0.470766 (Simulation time: 0 hr 16 min 15 sec) 
Heartbeat CPU 0 instructions: 480000003 cycles: 857209859 heartbeat IPC: 0.472478 cumulative IPC: 0.470811 (Simulation time: 0 hr 16 min 35 sec) 
Heartbeat CPU 0 instructions: 490000000 cycles: 877479478 heartbeat IPC: 0.493349 cumulative IPC: 0.471363 (Simulation time: 0 hr 16 min 55 sec) 
Heartbeat CPU 0 instructions: 500000003 cycles: 898030563 heartbeat IPC: 0.486592 cumulative IPC: 0.471732 (Simulation time: 0 hr 17 min 15 sec) 
Heartbeat CPU 0 instructions: 510000000 cycles: 919022237 heartbeat IPC: 0.476379 cumulative IPC: 0.471844 (Simulation time: 0 hr 17 min 35 sec) 
Heartbeat CPU 0 instructions: 520000000 cycles: 939297568 heartbeat IPC: 0.49321 cumulative IPC: 0.472332 (Simulation time: 0 hr 17 min 55 sec) 
Heartbeat CPU 0 instructions: 530000000 cycles: 959788449 heartbeat IPC: 0.488022 cumulative IPC: 0.472685 (Simulation time: 0 hr 18 min 15 sec) 
Heartbeat CPU 0 instructions: 540000002 cycles: 980583215 heartbeat IPC: 0.48089 cumulative IPC: 0.472868 (Simulation time: 0 hr 18 min 35 sec) 
Heartbeat CPU 0 instructions: 550000000 cycles: 1000991231 heartbeat IPC: 0.490003 cumulative IPC: 0.473236 (Simulation time: 0 hr 18 min 55 sec) 
Heartbeat CPU 0 instructions: 560000003 cycles: 1022948728 heartbeat IPC: 0.455425 cumulative IPC: 0.472834 (Simulation time: 0 hr 19 min 15 sec) 
Heartbeat CPU 0 instructions: 570000001 cycles: 1044204177 heartbeat IPC: 0.470468 cumulative IPC: 0.472784 (Simulation time: 0 hr 19 min 35 sec) 
Heartbeat CPU 0 instructions: 580000000 cycles: 1065469625 heartbeat IPC: 0.470246 cumulative IPC: 0.47273 (Simulation time: 0 hr 19 min 55 sec) 
Heartbeat CPU 0 instructions: 590000000 cycles: 1086032933 heartbeat IPC: 0.486303 cumulative IPC: 0.473 (Simulation time: 0 hr 20 min 15 sec) 
Heartbeat CPU 0 instructions: 600000000 cycles: 1106287655 heartbeat IPC: 0.493712 cumulative IPC: 0.473397 (Simulation time: 0 hr 20 min 35 sec) 
Heartbeat CPU 0 instructions: 610000001 cycles: 1126982698 heartbeat IPC: 0.483208 cumulative IPC: 0.473586 (Simulation time: 0 hr 20 min 55 sec) 
Heartbeat CPU 0 instructions: 620000001 cycles: 1147114547 heartbeat IPC: 0.496725 cumulative IPC: 0.47401 (Simulation time: 0 hr 21 min 15 sec) 
Heartbeat CPU 0 instructions: 630000000 cycles: 1167359841 heartbeat IPC: 0.493942 cumulative IPC: 0.474371 (Simulation time: 0 hr 21 min 35 sec) 
Heartbeat CPU 0 instructions: 640000002 cycles: 1187876588 heartbeat IPC: 0.487407 cumulative IPC: 0.474606 (Simulation time: 0 hr 21 min 55 sec) 
Heartbeat CPU 0 instructions: 650000001 cycles: 1208368785 heartbeat IPC: 0.487991 cumulative IPC: 0.474843 (Simulation time: 0 hr 22 min 15 sec) 
Heartbeat CPU 0 instructions: 660000000 cycles: 1228661592 heartbeat IPC: 0.492785 cumulative IPC: 0.475152 (Simulation time: 0 hr 22 min 35 sec) 
Heartbeat CPU 0 instructions: 670000001 cycles: 1249232739 heartbeat IPC: 0.486118 cumulative IPC: 0.47534 (Simulation time: 0 hr 22 min 55 sec) 
Heartbeat CPU 0 instructions: 680000000 cycles: 1269724573 heartbeat IPC: 0.487999 cumulative IPC: 0.475553 (Simulation time: 0 hr 23 min 15 sec) 
Heartbeat CPU 0 instructions: 690000000 cycles: 1290002516 heartbeat IPC: 0.493147 cumulative IPC: 0.475841 (Simulation time: 0 hr 23 min 35 sec) 
Heartbeat CPU 0 instructions: 700000003 cycles: 1310407582 heartbeat IPC: 0.490075 cumulative IPC: 0.476071 (Simulation time: 0 hr 23 min 55 sec) 
Heartbeat CPU 0 instructions: 710000001 cycles: 1331029469 heartbeat IPC: 0.484922 cumulative IPC: 0.476214 (Simulation time: 0 hr 24 min 15 sec) 
Heartbeat CPU 0 instructions: 720000000 cycles: 1351328031 heartbeat IPC: 0.492646 cumulative IPC: 0.47647 (Simulation time: 0 hr 24 min 35 sec) 
Heartbeat CPU 0 instructions: 730000000 cycles: 1371684019 heartbeat IPC: 0.491256 cumulative IPC: 0.476698 (Simulation time: 0 hr 24 min 55 sec) 
Heartbeat CPU 0 instructions: 740000003 cycles: 1392340249 heartbeat IPC: 0.484116 cumulative IPC: 0.476812 (Simulation time: 0 hr 25 min 15 sec) 
Heartbeat CPU 0 instructions: 750000003 cycles: 1413736779 heartbeat IPC: 0.467366 cumulative IPC: 0.476664 (Simulation time: 0 hr 25 min 36 sec) 
Heartbeat CPU 0 instructions: 760000001 cycles: 1449047558 heartbeat IPC: 0.2832 cumulative IPC: 0.47178 (Simulation time: 0 hr 25 min 57 sec) 
Heartbeat CPU 0 instructions: 770000000 cycles: 1474890792 heartbeat IPC: 0.386948 cumulative IPC: 0.470242 (Simulation time: 0 hr 26 min 18 sec) 
Heartbeat CPU 0 instructions: 780000001 cycles: 1495834549 heartbeat IPC: 0.477469 cumulative IPC: 0.470346 (Simulation time: 0 hr 26 min 38 sec) 
Heartbeat CPU 0 instructions: 790000003 cycles: 1516221371 heartbeat IPC: 0.490513 cumulative IPC: 0.470627 (Simulation time: 0 hr 26 min 58 sec) 
Heartbeat CPU 0 instructions: 800000000 cycles: 1536270765 heartbeat IPC: 0.498768 cumulative IPC: 0.471007 (Simulation time: 0 hr 27 min 18 sec) 
Heartbeat CPU 0 instructions: 810000001 cycles: 1556784727 heartbeat IPC: 0.487473 cumulative IPC: 0.471231 (Simulation time: 0 hr 27 min 38 sec) 
Heartbeat CPU 0 instructions: 820000001 cycles: 1577855232 heartbeat IPC: 0.474597 cumulative IPC: 0.471277 (Simulation time: 0 hr 27 min 59 sec) 
Heartbeat CPU 0 instructions: 830000001 cycles: 1598117665 heartbeat IPC: 0.493524 cumulative IPC: 0.471568 (Simulation time: 0 hr 28 min 19 sec) 
Heartbeat CPU 0 instructions: 840000003 cycles: 1618752360 heartbeat IPC: 0.484621 cumulative IPC: 0.47174 (Simulation time: 0 hr 28 min 39 sec) 
Heartbeat CPU 0 instructions: 850000003 cycles: 1638860026 heartbeat IPC: 0.497323 cumulative IPC: 0.472064 (Simulation time: 0 hr 29 min 0 sec) 
Heartbeat CPU 0 instructions: 860000002 cycles: 1659804534 heartbeat IPC: 0.477452 cumulative IPC: 0.472134 (Simulation time: 0 hr 29 min 20 sec) 
Heartbeat CPU 0 instructions: 870000000 cycles: 1680110045 heartbeat IPC: 0.492477 cumulative IPC: 0.472387 (Simulation time: 0 hr 29 min 40 sec) 
Heartbeat CPU 0 instructions: 880000000 cycles: 1700100818 heartbeat IPC: 0.500231 cumulative IPC: 0.472725 (Simulation time: 0 hr 30 min 0 sec) 
Heartbeat CPU 0 instructions: 890000001 cycles: 1720936124 heartbeat IPC: 0.479955 cumulative IPC: 0.472815 (Simulation time: 0 hr 30 min 20 sec) 
Heartbeat CPU 0 instructions: 900000000 cycles: 1741429361 heartbeat IPC: 0.487966 cumulative IPC: 0.472998 (Simulation time: 0 hr 30 min 41 sec) 
Heartbeat CPU 0 instructions: 910000000 cycles: 1761503965 heartbeat IPC: 0.498142 cumulative IPC: 0.473293 (Simulation time: 0 hr 31 min 1 sec) 
Heartbeat CPU 0 instructions: 920000000 cycles: 1782345760 heartbeat IPC: 0.479805 cumulative IPC: 0.473372 (Simulation time: 0 hr 31 min 21 sec) 
Heartbeat CPU 0 instructions: 930000001 cycles: 1802876649 heartbeat IPC: 0.487071 cumulative IPC: 0.473532 (Simulation time: 0 hr 31 min 41 sec) 
Heartbeat CPU 0 instructions: 940000001 cycles: 1822910140 heartbeat IPC: 0.499164 cumulative IPC: 0.473822 (Simulation time: 0 hr 32 min 1 sec) 
Heartbeat CPU 0 instructions: 950000000 cycles: 1843241253 heartbeat IPC: 0.491857 cumulative IPC: 0.474026 (Simulation time: 0 hr 32 min 21 sec) 
Heartbeat CPU 0 instructions: 960000002 cycles: 1864331249 heartbeat IPC: 0.474159 cumulative IPC: 0.474028 (Simulation time: 0 hr 32 min 42 sec) 
Heartbeat CPU 0 instructions: 970000001 cycles: 1884425820 heartbeat IPC: 0.497647 cumulative IPC: 0.474287 (Simulation time: 0 hr 33 min 2 sec) 
Heartbeat CPU 0 instructions: 980000001 cycles: 1904933709 heartbeat IPC: 0.487617 cumulative IPC: 0.474434 (Simulation time: 0 hr 33 min 22 sec) 
Heartbeat CPU 0 instructions: 990000000 cycles: 1925893317 heartbeat IPC: 0.477108 cumulative IPC: 0.474464 (Simulation time: 0 hr 33 min 43 sec) 
Heartbeat CPU 0 instructions: 1000000000 cycles: 1945837293 heartbeat IPC: 0.501405 cumulative IPC: 0.474747 (Simulation time: 0 hr 34 min 3 sec) 
Heartbeat CPU 0 instructions: 1010000001 cycles: 1966106282 heartbeat IPC: 0.493365 cumulative IPC: 0.474944 (Simulation time: 0 hr 34 min 23 sec) 
Heartbeat CPU 0 instructions: 1020000002 cycles: 1987193351 heartbeat IPC: 0.474224 cumulative IPC: 0.474936 (Simulation time: 0 hr 34 min 43 sec) 
Heartbeat CPU 0 instructions: 1030000002 cycles: 2007107127 heartbeat IPC: 0.502165 cumulative IPC: 0.475213 (Simulation time: 0 hr 35 min 3 sec) 
Heartbeat CPU 0 instructions: 1040000002 cycles: 2027394731 heartbeat IPC: 0.492912 cumulative IPC: 0.475395 (Simulation time: 0 hr 35 min 23 sec) 
Heartbeat CPU 0 instructions: 1050000000 cycles: 2048475006 heartbeat IPC: 0.474377 cumulative IPC: 0.475384 (Simulation time: 0 hr 35 min 44 sec) 
Heartbeat CPU 0 instructions: 1060000000 cycles: 2068423629 heartbeat IPC: 0.501288 cumulative IPC: 0.47564 (Simulation time: 0 hr 36 min 4 sec) 
Heartbeat CPU 0 instructions: 1070000003 cycles: 2088697447 heartbeat IPC: 0.493247 cumulative IPC: 0.475815 (Simulation time: 0 hr 36 min 24 sec) 
Heartbeat CPU 0 instructions: 1080000000 cycles: 2109779675 heartbeat IPC: 0.474333 cumulative IPC: 0.4758 (Simulation time: 0 hr 36 min 44 sec) 
Heartbeat CPU 0 instructions: 1090000000 cycles: 2129755267 heartbeat IPC: 0.500611 cumulative IPC: 0.476039 (Simulation time: 0 hr 37 min 4 sec) 
Heartbeat CPU 0 instructions: 1100000000 cycles: 2150031202 heartbeat IPC: 0.493196 cumulative IPC: 0.476204 (Simulation time: 0 hr 37 min 25 sec) 
Finished CPU 0 instructions: 1000000000 cycles: 2099939363 cumulative IPC: 0.476204 (Simulation time: 0 hr 37 min 25 sec) 

ChampSim completed all CPUs

Region of Interest Statistics

CPU 0 cumulative IPC: 0.476204 instructions: 1000000000 cycles: 2099939363
L1D TOTAL     ACCESS:  302976267  HIT:  286160520  MISS:   16815747
L1D LOAD      ACCESS:  203153692  HIT:  186348481  MISS:   16805211
L1D RFO       ACCESS:   99822575  HIT:   99812039  MISS:      10536
L1D PREFETCH  ACCESS:          0  HIT:          0  MISS:          0
L1D WRITEBACK ACCESS:          0  HIT:          0  MISS:          0
L1D PREFETCH  REQUESTED:          0  ISSUED:          0  USEFUL:          0  USELESS:          0
L1D AVERAGE MISS LATENCY: 71.3792 cycles
L1I TOTAL     ACCESS:  151450077  HIT:  151450076  MISS:          1
L1I LOAD      ACCESS:  151450077  HIT:  151450076  MISS:          1
L1I RFO       ACCESS:          0  HIT:          0  MISS:          0
L1I PREFETCH  ACCESS:          0  HIT:          0  MISS:          0
L1I WRITEBACK ACCESS:          0  HIT:          0  MISS:          0
L1I PREFETCH  REQUESTED:          0  ISSUED:          0  USEFUL:          0  USELESS:          0
L1I AVERAGE MISS LATENCY: 235 cycles
L2C TOTAL     ACCESS:   16983978  HIT:    8598961  MISS:    8385017
L2C LOAD      ACCESS:   16805212  HIT:    8428387  MISS:    8376825
L2C RFO       ACCESS:      10536  HIT:       2388  MISS:       8148
L2C PREFETCH  ACCESS:          0  HIT:          0  MISS:          0
L2C WRITEBACK ACCESS:     168230  HIT:     168186  MISS:         44
L2C PREFETCH  REQUESTED:          0  ISSUED:          0  USEFUL:          0  USELESS:          0
L2C AVERAGE MISS LATENCY: 118.961 cycles
LLC TOTAL     ACCESS:    8466373  HIT:    1001839  MISS:    7464534
LLC LOAD      ACCESS:    8376824  HIT:     960020  MISS:    7416804
LLC RFO       ACCESS:       8148  HIT:       1948  MISS:       6200
LLC PREFETCH  ACCESS:          0  HIT:          0  MISS:          0
LLC WRITEBACK ACCESS:      81401  HIT:      39871  MISS:      41530
LLC PREFETCH  REQUESTED:          0  ISSUED:          0  USEFUL:          0  USELESS:          0
LLC AVERAGE MISS LATENCY: 88.6329 cycles
Major fault: 0 Minor fault: 12421

DRAM Statistics
 CHANNEL 0
 RQ ROW_BUFFER_HIT:    6973440  ROW_BUFFER_MISS:     449564
 DBUS_CONGESTED:      36780
 WQ ROW_BUFFER_HIT:      16346  ROW_BUFFER_MISS:      30688  FULL:          0

 AVG_CONGESTED_CYCLE: 3

CPU 0 Branch Prediction Accuracy: 94.6645% MPKI: 12.6908 Average ROB Occupancy at Mispredict: 52.462

Branch types
NOT_BRANCH: 762143497 76.2143%
BRANCH_DIRECT_JUMP: 24833668 2.48337%
BRANCH_INDIRECT: 0 0%
BRANCH_CONDITIONAL: 188060658 18.8061%
BRANCH_DIRECT_CALL: 12480831 1.24808%
BRANCH_INDIRECT_CALL: 86 8.6e-06%
BRANCH_RETURN: 12480917 1.24809%
BRANCH_OTHER: 0 0%

