
*** ChampSim Multicore Out-of-Order Simulator ***

Warmup Instructions: 100000000
Simulation Instructions: 1000000000
Number of CPUs: 1
LLC sets: 2048
LLC ways: 16
Off-chip DRAM Size: 4096 MB Channels: 1 Width: 64-bit Data Rate: 3200 MT/s

CPU 0 runs /scratch/user/kevin.weston/dpc3-traces/602.champsimtrace.xz
CPU 0 Bimodal branch predictor
Per-line RRPV Initialized
PRRIP State Initialized
Assign SAMPLER_SET[0]: 454  LLC: 2048
SAMPLER_SET[0]: 454
Assign SAMPLER_SET[1]: 1662  LLC: 2048
SAMPLER_SET[1]: 1662
Assign SAMPLER_SET[2]: 1921  LLC: 2048
SAMPLER_SET[2]: 1921
Assign SAMPLER_SET[3]: 1131  LLC: 2048
SAMPLER_SET[3]: 1131
Assign SAMPLER_SET[4]: 331  LLC: 2048
SAMPLER_SET[4]: 331
Assign SAMPLER_SET[5]: 1531  LLC: 2048
SAMPLER_SET[5]: 1531
Assign SAMPLER_SET[6]: 482  LLC: 2048
SAMPLER_SET[6]: 482
Assign SAMPLER_SET[7]: 1275  LLC: 2048
SAMPLER_SET[7]: 1275
Assign SAMPLER_SET[8]: 1876  LLC: 2048
SAMPLER_SET[8]: 1876
Assign SAMPLER_SET[9]: 2038  LLC: 2048
SAMPLER_SET[9]: 2038
Assign SAMPLER_SET[10]: 701  LLC: 2048
SAMPLER_SET[10]: 701
Assign SAMPLER_SET[11]: 479  LLC: 2048
SAMPLER_SET[11]: 479
Assign SAMPLER_SET[12]: 892  LLC: 2048
SAMPLER_SET[12]: 892
Assign SAMPLER_SET[13]: 1820  LLC: 2048
SAMPLER_SET[13]: 1820
Assign SAMPLER_SET[14]: 1505  LLC: 2048
SAMPLER_SET[14]: 1505
Assign SAMPLER_SET[15]: 1159  LLC: 2048
SAMPLER_SET[15]: 1159
Assign SAMPLER_SET[16]: 513  LLC: 2048
SAMPLER_SET[16]: 513
Assign SAMPLER_SET[17]: 703  LLC: 2048
SAMPLER_SET[17]: 703
Assign SAMPLER_SET[18]: 561  LLC: 2048
SAMPLER_SET[18]: 561
Assign SAMPLER_SET[19]: 990  LLC: 2048
SAMPLER_SET[19]: 990
Assign SAMPLER_SET[20]: 342  LLC: 2048
SAMPLER_SET[20]: 342
Assign SAMPLER_SET[21]: 882  LLC: 2048
SAMPLER_SET[21]: 882
Assign SAMPLER_SET[22]: 15  LLC: 2048
SAMPLER_SET[22]: 15
Assign SAMPLER_SET[23]: 71  LLC: 2048
SAMPLER_SET[23]: 71
Assign SAMPLER_SET[24]: 1127  LLC: 2048
SAMPLER_SET[24]: 1127
Assign SAMPLER_SET[25]: 1382  LLC: 2048
SAMPLER_SET[25]: 1382
Assign SAMPLER_SET[26]: 647  LLC: 2048
SAMPLER_SET[26]: 647
Assign SAMPLER_SET[27]: 857  LLC: 2048
SAMPLER_SET[27]: 857
Assign SAMPLER_SET[28]: 1450  LLC: 2048
SAMPLER_SET[28]: 1450
Assign SAMPLER_SET[29]: 1160  LLC: 2048
SAMPLER_SET[29]: 1160
Assign SAMPLER_SET[30]: 1852  LLC: 2048
SAMPLER_SET[30]: 1852
Assign SAMPLER_SET[31]: 1881  LLC: 2048
SAMPLER_SET[31]: 1881
Assign SAMPLER_SET[32]: 1770  LLC: 2048
SAMPLER_SET[32]: 1770
Assign SAMPLER_SET[33]: 1622  LLC: 2048
SAMPLER_SET[33]: 1622
Assign SAMPLER_SET[34]: 275  LLC: 2048
SAMPLER_SET[34]: 275
Assign SAMPLER_SET[35]: 635  LLC: 2048
SAMPLER_SET[35]: 635
Assign SAMPLER_SET[36]: 466  LLC: 2048
SAMPLER_SET[36]: 466
Assign SAMPLER_SET[37]: 1413  LLC: 2048
SAMPLER_SET[37]: 1413
Assign SAMPLER_SET[38]: 417  LLC: 2048
SAMPLER_SET[38]: 417
Assign SAMPLER_SET[39]: 472  LLC: 2048
SAMPLER_SET[39]: 472
Assign SAMPLER_SET[40]: 1340  LLC: 2048
SAMPLER_SET[40]: 1340
Assign SAMPLER_SET[41]: 852  LLC: 2048
SAMPLER_SET[41]: 852
Assign SAMPLER_SET[42]: 1365  LLC: 2048
SAMPLER_SET[42]: 1365
Assign SAMPLER_SET[43]: 47  LLC: 2048
SAMPLER_SET[43]: 47
Assign SAMPLER_SET[44]: 823  LLC: 2048
SAMPLER_SET[44]: 823
Assign SAMPLER_SET[45]: 686  LLC: 2048
SAMPLER_SET[45]: 686
Assign SAMPLER_SET[46]: 1637  LLC: 2048
SAMPLER_SET[46]: 1637
Assign SAMPLER_SET[47]: 1115  LLC: 2048
SAMPLER_SET[47]: 1115
Assign SAMPLER_SET[48]: 986  LLC: 2048
SAMPLER_SET[48]: 986
Assign SAMPLER_SET[49]: 258  LLC: 2048
SAMPLER_SET[49]: 258
Assign SAMPLER_SET[50]: 633  LLC: 2048
SAMPLER_SET[50]: 633
Assign SAMPLER_SET[51]: 920  LLC: 2048
SAMPLER_SET[51]: 920
Assign SAMPLER_SET[52]: 204  LLC: 2048
SAMPLER_SET[52]: 204
Assign SAMPLER_SET[53]: 227  LLC: 2048
SAMPLER_SET[53]: 227
Assign SAMPLER_SET[54]: 1818  LLC: 2048
SAMPLER_SET[54]: 1818
Assign SAMPLER_SET[55]: 886  LLC: 2048
SAMPLER_SET[55]: 886
Assign SAMPLER_SET[56]: 1422  LLC: 2048
SAMPLER_SET[56]: 1422
Assign SAMPLER_SET[57]: 607  LLC: 2048
SAMPLER_SET[57]: 607
Assign SAMPLER_SET[58]: 217  LLC: 2048
SAMPLER_SET[58]: 217
Assign SAMPLER_SET[59]: 1945  LLC: 2048
SAMPLER_SET[59]: 1945
Assign SAMPLER_SET[60]: 143  LLC: 2048
SAMPLER_SET[60]: 143
Assign SAMPLER_SET[61]: 1311  LLC: 2048
SAMPLER_SET[61]: 1311
Assign SAMPLER_SET[62]: 319  LLC: 2048
SAMPLER_SET[62]: 319
Assign SAMPLER_SET[63]: 1846  LLC: 2048
SAMPLER_SET[63]: 1846
Heartbeat CPU 0 instructions: 10000001 cycles: 5015425 heartbeat IPC: 1.99385 cumulative IPC: 1.99385 (Simulation time: 0 hr 0 min 23 sec) 
Heartbeat CPU 0 instructions: 20000002 cycles: 10021560 heartbeat IPC: 1.99755 cumulative IPC: 1.9957 (Simulation time: 0 hr 0 min 47 sec) 
Heartbeat CPU 0 instructions: 30000000 cycles: 15029846 heartbeat IPC: 1.99669 cumulative IPC: 1.99603 (Simulation time: 0 hr 1 min 10 sec) 
Heartbeat CPU 0 instructions: 40000002 cycles: 20050901 heartbeat IPC: 1.99161 cumulative IPC: 1.99492 (Simulation time: 0 hr 1 min 34 sec) 
Heartbeat CPU 0 instructions: 50000000 cycles: 25062552 heartbeat IPC: 1.99535 cumulative IPC: 1.99501 (Simulation time: 0 hr 1 min 57 sec) 
Heartbeat CPU 0 instructions: 60000000 cycles: 30079914 heartbeat IPC: 1.99308 cumulative IPC: 1.99469 (Simulation time: 0 hr 2 min 20 sec) 
Heartbeat CPU 0 instructions: 70000002 cycles: 35086422 heartbeat IPC: 1.9974 cumulative IPC: 1.99507 (Simulation time: 0 hr 2 min 44 sec) 
Heartbeat CPU 0 instructions: 80000000 cycles: 40090151 heartbeat IPC: 1.99851 cumulative IPC: 1.9955 (Simulation time: 0 hr 3 min 7 sec) 
Heartbeat CPU 0 instructions: 90000000 cycles: 45102420 heartbeat IPC: 1.9951 cumulative IPC: 1.99546 (Simulation time: 0 hr 3 min 30 sec) 
Heartbeat CPU 0 instructions: 100000000 cycles: 50089366 heartbeat IPC: 2.00524 cumulative IPC: 1.99643 (Simulation time: 0 hr 3 min 52 sec) 

Warmup complete CPU 0 instructions: 100000004 cycles: 50089367 (Simulation time: 0 hr 3 min 52 sec) 

Heartbeat CPU 0 instructions: 110000000 cycles: 70647010 heartbeat IPC: 0.486437 cumulative IPC: 0.486437 (Simulation time: 0 hr 4 min 12 sec) 
Heartbeat CPU 0 instructions: 120000000 cycles: 91317069 heartbeat IPC: 0.483792 cumulative IPC: 0.485111 (Simulation time: 0 hr 4 min 31 sec) 
Heartbeat CPU 0 instructions: 130000003 cycles: 114198255 heartbeat IPC: 0.43704 cumulative IPC: 0.467954 (Simulation time: 0 hr 4 min 52 sec) 
Heartbeat CPU 0 instructions: 140000001 cycles: 134845039 heartbeat IPC: 0.484337 cumulative IPC: 0.471945 (Simulation time: 0 hr 5 min 12 sec) 
Heartbeat CPU 0 instructions: 150000000 cycles: 156080264 heartbeat IPC: 0.470916 cumulative IPC: 0.471739 (Simulation time: 0 hr 5 min 32 sec) 
Heartbeat CPU 0 instructions: 160000003 cycles: 177398182 heartbeat IPC: 0.469089 cumulative IPC: 0.471295 (Simulation time: 0 hr 5 min 52 sec) 
Heartbeat CPU 0 instructions: 170000000 cycles: 197538508 heartbeat IPC: 0.496516 cumulative IPC: 0.47474 (Simulation time: 0 hr 6 min 12 sec) 
Heartbeat CPU 0 instructions: 180000000 cycles: 218461198 heartbeat IPC: 0.47795 cumulative IPC: 0.475139 (Simulation time: 0 hr 6 min 31 sec) 
Heartbeat CPU 0 instructions: 190000002 cycles: 253964493 heartbeat IPC: 0.281664 cumulative IPC: 0.441447 (Simulation time: 0 hr 6 min 53 sec) 
Heartbeat CPU 0 instructions: 200000000 cycles: 280106082 heartbeat IPC: 0.382532 cumulative IPC: 0.434751 (Simulation time: 0 hr 7 min 13 sec) 
Heartbeat CPU 0 instructions: 210000000 cycles: 300161469 heartbeat IPC: 0.498619 cumulative IPC: 0.439873 (Simulation time: 0 hr 7 min 33 sec) 
Heartbeat CPU 0 instructions: 220000000 cycles: 321279868 heartbeat IPC: 0.473521 cumulative IPC: 0.442493 (Simulation time: 0 hr 7 min 53 sec) 
Heartbeat CPU 0 instructions: 230000002 cycles: 341198050 heartbeat IPC: 0.502054 cumulative IPC: 0.446569 (Simulation time: 0 hr 8 min 12 sec) 
Heartbeat CPU 0 instructions: 240000001 cycles: 361975080 heartbeat IPC: 0.481301 cumulative IPC: 0.448882 (Simulation time: 0 hr 8 min 32 sec) 
Heartbeat CPU 0 instructions: 250000000 cycles: 383131373 heartbeat IPC: 0.472673 cumulative IPC: 0.450394 (Simulation time: 0 hr 8 min 52 sec) 
Heartbeat CPU 0 instructions: 260000000 cycles: 403470614 heartbeat IPC: 0.49166 cumulative IPC: 0.452769 (Simulation time: 0 hr 9 min 11 sec) 
Heartbeat CPU 0 instructions: 270000000 cycles: 424760350 heartbeat IPC: 0.46971 cumulative IPC: 0.453731 (Simulation time: 0 hr 9 min 32 sec) 
Heartbeat CPU 0 instructions: 280000001 cycles: 444758479 heartbeat IPC: 0.500047 cumulative IPC: 0.456078 (Simulation time: 0 hr 9 min 51 sec) 
Heartbeat CPU 0 instructions: 290000002 cycles: 465193034 heartbeat IPC: 0.489367 cumulative IPC: 0.457717 (Simulation time: 0 hr 10 min 11 sec) 
Heartbeat CPU 0 instructions: 300000000 cycles: 486449675 heartbeat IPC: 0.470441 cumulative IPC: 0.458337 (Simulation time: 0 hr 10 min 31 sec) 
Heartbeat CPU 0 instructions: 310000000 cycles: 506436135 heartbeat IPC: 0.500339 cumulative IPC: 0.460176 (Simulation time: 0 hr 10 min 50 sec) 
Heartbeat CPU 0 instructions: 320000001 cycles: 526885387 heartbeat IPC: 0.489015 cumulative IPC: 0.461413 (Simulation time: 0 hr 11 min 10 sec) 
Heartbeat CPU 0 instructions: 330000000 cycles: 548125786 heartbeat IPC: 0.470801 cumulative IPC: 0.461814 (Simulation time: 0 hr 11 min 30 sec) 
Heartbeat CPU 0 instructions: 340000002 cycles: 568133907 heartbeat IPC: 0.499797 cumulative IPC: 0.463281 (Simulation time: 0 hr 11 min 49 sec) 
Heartbeat CPU 0 instructions: 350000000 cycles: 588563192 heartbeat IPC: 0.489493 cumulative IPC: 0.464275 (Simulation time: 0 hr 12 min 9 sec) 
Heartbeat CPU 0 instructions: 360000000 cycles: 609951215 heartbeat IPC: 0.467551 cumulative IPC: 0.4644 (Simulation time: 0 hr 12 min 29 sec) 
Heartbeat CPU 0 instructions: 370000000 cycles: 629973203 heartbeat IPC: 0.499451 cumulative IPC: 0.46561 (Simulation time: 0 hr 12 min 48 sec) 
Heartbeat CPU 0 instructions: 380000000 cycles: 650377634 heartbeat IPC: 0.49009 cumulative IPC: 0.466443 (Simulation time: 0 hr 13 min 8 sec) 
Heartbeat CPU 0 instructions: 390000000 cycles: 671877720 heartbeat IPC: 0.465114 cumulative IPC: 0.466397 (Simulation time: 0 hr 13 min 29 sec) 
Heartbeat CPU 0 instructions: 400000002 cycles: 691874022 heartbeat IPC: 0.500093 cumulative IPC: 0.467447 (Simulation time: 0 hr 13 min 48 sec) 
Heartbeat CPU 0 instructions: 410000002 cycles: 712177142 heartbeat IPC: 0.492535 cumulative IPC: 0.468216 (Simulation time: 0 hr 14 min 8 sec) 
Heartbeat CPU 0 instructions: 420000000 cycles: 735663219 heartbeat IPC: 0.425784 cumulative IPC: 0.466762 (Simulation time: 0 hr 14 min 29 sec) 
Heartbeat CPU 0 instructions: 430000001 cycles: 755647571 heartbeat IPC: 0.500392 cumulative IPC: 0.467715 (Simulation time: 0 hr 14 min 48 sec) 
Heartbeat CPU 0 instructions: 440000000 cycles: 776043296 heartbeat IPC: 0.490299 cumulative IPC: 0.468349 (Simulation time: 0 hr 15 min 8 sec) 
Heartbeat CPU 0 instructions: 450000002 cycles: 797328695 heartbeat IPC: 0.469806 cumulative IPC: 0.468391 (Simulation time: 0 hr 15 min 28 sec) 
Heartbeat CPU 0 instructions: 460000000 cycles: 817308048 heartbeat IPC: 0.500517 cumulative IPC: 0.469227 (Simulation time: 0 hr 15 min 48 sec) 
Heartbeat CPU 0 instructions: 470000000 cycles: 837867221 heartbeat IPC: 0.486401 cumulative IPC: 0.469676 (Simulation time: 0 hr 16 min 7 sec) 
Heartbeat CPU 0 instructions: 480000003 cycles: 859377981 heartbeat IPC: 0.464884 cumulative IPC: 0.469548 (Simulation time: 0 hr 16 min 28 sec) 
Heartbeat CPU 0 instructions: 490000000 cycles: 879621223 heartbeat IPC: 0.493992 cumulative IPC: 0.470145 (Simulation time: 0 hr 16 min 47 sec) 
Heartbeat CPU 0 instructions: 500000003 cycles: 900595684 heartbeat IPC: 0.47677 cumulative IPC: 0.470308 (Simulation time: 0 hr 17 min 7 sec) 
Heartbeat CPU 0 instructions: 510000000 cycles: 920391681 heartbeat IPC: 0.505152 cumulative IPC: 0.471101 (Simulation time: 0 hr 17 min 27 sec) 
Heartbeat CPU 0 instructions: 520000000 cycles: 941189552 heartbeat IPC: 0.480818 cumulative IPC: 0.471327 (Simulation time: 0 hr 17 min 46 sec) 
Heartbeat CPU 0 instructions: 530000000 cycles: 961810474 heartbeat IPC: 0.484944 cumulative IPC: 0.471635 (Simulation time: 0 hr 18 min 6 sec) 
Heartbeat CPU 0 instructions: 540000002 cycles: 981753571 heartbeat IPC: 0.501427 cumulative IPC: 0.472273 (Simulation time: 0 hr 18 min 26 sec) 
Heartbeat CPU 0 instructions: 550000000 cycles: 1002584470 heartbeat IPC: 0.480056 cumulative IPC: 0.472443 (Simulation time: 0 hr 18 min 46 sec) 
Heartbeat CPU 0 instructions: 560000003 cycles: 1026001127 heartbeat IPC: 0.427047 cumulative IPC: 0.471354 (Simulation time: 0 hr 19 min 6 sec) 
Heartbeat CPU 0 instructions: 570000001 cycles: 1046301393 heartbeat IPC: 0.492604 cumulative IPC: 0.471787 (Simulation time: 0 hr 19 min 26 sec) 
Heartbeat CPU 0 instructions: 580000000 cycles: 1067625529 heartbeat IPC: 0.468952 cumulative IPC: 0.471728 (Simulation time: 0 hr 19 min 46 sec) 
Heartbeat CPU 0 instructions: 590000000 cycles: 1087654299 heartbeat IPC: 0.499282 cumulative IPC: 0.47226 (Simulation time: 0 hr 20 min 5 sec) 
Heartbeat CPU 0 instructions: 600000000 cycles: 1107998790 heartbeat IPC: 0.491534 cumulative IPC: 0.47263 (Simulation time: 0 hr 20 min 25 sec) 
Heartbeat CPU 0 instructions: 610000001 cycles: 1129091521 heartbeat IPC: 0.474097 cumulative IPC: 0.472659 (Simulation time: 0 hr 20 min 44 sec) 
Heartbeat CPU 0 instructions: 620000001 cycles: 1149129218 heartbeat IPC: 0.499059 cumulative IPC: 0.47314 (Simulation time: 0 hr 21 min 4 sec) 
Heartbeat CPU 0 instructions: 630000000 cycles: 1169378590 heartbeat IPC: 0.493842 cumulative IPC: 0.473515 (Simulation time: 0 hr 21 min 23 sec) 
Heartbeat CPU 0 instructions: 640000002 cycles: 1190561564 heartbeat IPC: 0.472077 cumulative IPC: 0.473488 (Simulation time: 0 hr 21 min 44 sec) 
Heartbeat CPU 0 instructions: 650000001 cycles: 1210571238 heartbeat IPC: 0.499758 cumulative IPC: 0.473941 (Simulation time: 0 hr 22 min 4 sec) 
Heartbeat CPU 0 instructions: 660000000 cycles: 1230915875 heartbeat IPC: 0.49153 cumulative IPC: 0.474244 (Simulation time: 0 hr 22 min 23 sec) 
Heartbeat CPU 0 instructions: 670000001 cycles: 1252254077 heartbeat IPC: 0.468643 cumulative IPC: 0.474145 (Simulation time: 0 hr 22 min 44 sec) 
Heartbeat CPU 0 instructions: 680000000 cycles: 1272253419 heartbeat IPC: 0.500016 cumulative IPC: 0.474568 (Simulation time: 0 hr 23 min 3 sec) 
Heartbeat CPU 0 instructions: 690000000 cycles: 1292553178 heartbeat IPC: 0.492617 cumulative IPC: 0.474863 (Simulation time: 0 hr 23 min 23 sec) 
Heartbeat CPU 0 instructions: 700000003 cycles: 1313767392 heartbeat IPC: 0.471382 cumulative IPC: 0.474804 (Simulation time: 0 hr 23 min 43 sec) 
Heartbeat CPU 0 instructions: 710000001 cycles: 1333812026 heartbeat IPC: 0.498887 cumulative IPC: 0.475181 (Simulation time: 0 hr 24 min 3 sec) 
Heartbeat CPU 0 instructions: 720000000 cycles: 1354199434 heartbeat IPC: 0.490499 cumulative IPC: 0.47542 (Simulation time: 0 hr 24 min 23 sec) 
Heartbeat CPU 0 instructions: 730000000 cycles: 1374899106 heartbeat IPC: 0.483099 cumulative IPC: 0.47554 (Simulation time: 0 hr 24 min 43 sec) 
Heartbeat CPU 0 instructions: 740000003 cycles: 1395382821 heartbeat IPC: 0.488193 cumulative IPC: 0.475733 (Simulation time: 0 hr 25 min 3 sec) 
Heartbeat CPU 0 instructions: 750000003 cycles: 1416846726 heartbeat IPC: 0.465898 cumulative IPC: 0.475578 (Simulation time: 0 hr 25 min 23 sec) 
Heartbeat CPU 0 instructions: 760000001 cycles: 1451669792 heartbeat IPC: 0.287166 cumulative IPC: 0.470897 (Simulation time: 0 hr 25 min 44 sec) 
Heartbeat CPU 0 instructions: 770000000 cycles: 1478650691 heartbeat IPC: 0.370633 cumulative IPC: 0.469003 (Simulation time: 0 hr 26 min 5 sec) 
Heartbeat CPU 0 instructions: 780000001 cycles: 1498266231 heartbeat IPC: 0.5098 cumulative IPC: 0.469556 (Simulation time: 0 hr 26 min 24 sec) 
Heartbeat CPU 0 instructions: 790000003 cycles: 1519251102 heartbeat IPC: 0.476534 cumulative IPC: 0.469656 (Simulation time: 0 hr 26 min 44 sec) 
Heartbeat CPU 0 instructions: 800000000 cycles: 1539709744 heartbeat IPC: 0.488791 cumulative IPC: 0.469918 (Simulation time: 0 hr 27 min 4 sec) 
Heartbeat CPU 0 instructions: 810000001 cycles: 1559872250 heartbeat IPC: 0.49597 cumulative IPC: 0.470266 (Simulation time: 0 hr 27 min 23 sec) 
Heartbeat CPU 0 instructions: 820000001 cycles: 1581222928 heartbeat IPC: 0.468369 cumulative IPC: 0.47024 (Simulation time: 0 hr 27 min 43 sec) 
Heartbeat CPU 0 instructions: 830000001 cycles: 1601454992 heartbeat IPC: 0.494265 cumulative IPC: 0.470553 (Simulation time: 0 hr 28 min 2 sec) 
Heartbeat CPU 0 instructions: 840000003 cycles: 1622021030 heartbeat IPC: 0.486239 cumulative IPC: 0.470758 (Simulation time: 0 hr 28 min 22 sec) 
Heartbeat CPU 0 instructions: 850000003 cycles: 1643219837 heartbeat IPC: 0.471725 cumulative IPC: 0.470771 (Simulation time: 0 hr 28 min 42 sec) 
Heartbeat CPU 0 instructions: 860000002 cycles: 1662760415 heartbeat IPC: 0.511756 cumulative IPC: 0.471268 (Simulation time: 0 hr 29 min 1 sec) 
Heartbeat CPU 0 instructions: 870000000 cycles: 1683537986 heartbeat IPC: 0.481288 cumulative IPC: 0.471395 (Simulation time: 0 hr 29 min 21 sec) 
Heartbeat CPU 0 instructions: 880000000 cycles: 1704239253 heartbeat IPC: 0.483062 cumulative IPC: 0.471541 (Simulation time: 0 hr 29 min 41 sec) 
Heartbeat CPU 0 instructions: 890000001 cycles: 1724151633 heartbeat IPC: 0.5022 cumulative IPC: 0.471906 (Simulation time: 0 hr 30 min 0 sec) 
Heartbeat CPU 0 instructions: 900000000 cycles: 1745102068 heartbeat IPC: 0.477317 cumulative IPC: 0.471973 (Simulation time: 0 hr 30 min 20 sec) 
Heartbeat CPU 0 instructions: 910000000 cycles: 1765922605 heartbeat IPC: 0.480295 cumulative IPC: 0.472074 (Simulation time: 0 hr 30 min 39 sec) 
Heartbeat CPU 0 instructions: 920000000 cycles: 1785840065 heartbeat IPC: 0.502072 cumulative IPC: 0.472418 (Simulation time: 0 hr 30 min 59 sec) 
Heartbeat CPU 0 instructions: 930000001 cycles: 1806840846 heartbeat IPC: 0.476173 cumulative IPC: 0.472463 (Simulation time: 0 hr 31 min 18 sec) 
Heartbeat CPU 0 instructions: 940000001 cycles: 1827242523 heartbeat IPC: 0.490156 cumulative IPC: 0.472666 (Simulation time: 0 hr 31 min 38 sec) 
Heartbeat CPU 0 instructions: 950000000 cycles: 1847469133 heartbeat IPC: 0.494398 cumulative IPC: 0.472911 (Simulation time: 0 hr 31 min 57 sec) 
Heartbeat CPU 0 instructions: 960000002 cycles: 1868502219 heartbeat IPC: 0.475442 cumulative IPC: 0.47294 (Simulation time: 0 hr 32 min 17 sec) 
Heartbeat CPU 0 instructions: 970000001 cycles: 1889034216 heartbeat IPC: 0.487045 cumulative IPC: 0.473097 (Simulation time: 0 hr 32 min 37 sec) 
Heartbeat CPU 0 instructions: 980000001 cycles: 1909213588 heartbeat IPC: 0.495556 cumulative IPC: 0.473341 (Simulation time: 0 hr 32 min 57 sec) 
Heartbeat CPU 0 instructions: 990000000 cycles: 1930424015 heartbeat IPC: 0.471466 cumulative IPC: 0.47332 (Simulation time: 0 hr 33 min 17 sec) 
Heartbeat CPU 0 instructions: 1000000000 cycles: 1950356052 heartbeat IPC: 0.501705 cumulative IPC: 0.473618 (Simulation time: 0 hr 33 min 37 sec) 
Heartbeat CPU 0 instructions: 1010000001 cycles: 1970568790 heartbeat IPC: 0.494738 cumulative IPC: 0.47384 (Simulation time: 0 hr 33 min 57 sec) 
Heartbeat CPU 0 instructions: 1020000002 cycles: 1991839471 heartbeat IPC: 0.470131 cumulative IPC: 0.473799 (Simulation time: 0 hr 34 min 17 sec) 
Heartbeat CPU 0 instructions: 1030000002 cycles: 2011743893 heartbeat IPC: 0.502401 cumulative IPC: 0.47409 (Simulation time: 0 hr 34 min 37 sec) 
Heartbeat CPU 0 instructions: 1040000002 cycles: 2031981762 heartbeat IPC: 0.494123 cumulative IPC: 0.474294 (Simulation time: 0 hr 34 min 57 sec) 
Heartbeat CPU 0 instructions: 1050000000 cycles: 2053243505 heartbeat IPC: 0.470328 cumulative IPC: 0.474252 (Simulation time: 0 hr 35 min 17 sec) 
Heartbeat CPU 0 instructions: 1060000000 cycles: 2073274328 heartbeat IPC: 0.499231 cumulative IPC: 0.474499 (Simulation time: 0 hr 35 min 37 sec) 
Heartbeat CPU 0 instructions: 1070000003 cycles: 2093494269 heartbeat IPC: 0.494561 cumulative IPC: 0.474698 (Simulation time: 0 hr 35 min 56 sec) 
Heartbeat CPU 0 instructions: 1080000000 cycles: 2114785974 heartbeat IPC: 0.469666 cumulative IPC: 0.474646 (Simulation time: 0 hr 36 min 16 sec) 
Heartbeat CPU 0 instructions: 1090000000 cycles: 2134874398 heartbeat IPC: 0.497799 cumulative IPC: 0.474869 (Simulation time: 0 hr 36 min 36 sec) 
Heartbeat CPU 0 instructions: 1100000000 cycles: 2155092846 heartbeat IPC: 0.494598 cumulative IPC: 0.475059 (Simulation time: 0 hr 36 min 56 sec) 
Finished CPU 0 instructions: 1000000000 cycles: 2105003482 cumulative IPC: 0.475059 (Simulation time: 0 hr 36 min 56 sec) 

ChampSim completed all CPUs

Region of Interest Statistics

CPU 0 cumulative IPC: 0.475059 instructions: 1000000000 cycles: 2105003482
L1D TOTAL     ACCESS:  302976294  HIT:  286160549  MISS:   16815745
L1D LOAD      ACCESS:  203151248  HIT:  186346016  MISS:   16805232
L1D RFO       ACCESS:   99825046  HIT:   99814533  MISS:      10513
L1D PREFETCH  ACCESS:          0  HIT:          0  MISS:          0
L1D WRITEBACK ACCESS:          0  HIT:          0  MISS:          0
L1D PREFETCH  REQUESTED:          0  ISSUED:          0  USEFUL:          0  USELESS:          0
L1D AVERAGE MISS LATENCY: 71.9669 cycles
L1I TOTAL     ACCESS:  151449600  HIT:  151449599  MISS:          1
L1I LOAD      ACCESS:  151449600  HIT:  151449599  MISS:          1
L1I RFO       ACCESS:          0  HIT:          0  MISS:          0
L1I PREFETCH  ACCESS:          0  HIT:          0  MISS:          0
L1I WRITEBACK ACCESS:          0  HIT:          0  MISS:          0
L1I PREFETCH  REQUESTED:          0  ISSUED:          0  USEFUL:          0  USELESS:          0
L1I AVERAGE MISS LATENCY: 235 cycles
L2C TOTAL     ACCESS:   16983975  HIT:    8600048  MISS:    8383927
L2C LOAD      ACCESS:   16805233  HIT:    8429492  MISS:    8375741
L2C RFO       ACCESS:      10513  HIT:       2372  MISS:       8141
L2C PREFETCH  ACCESS:          0  HIT:          0  MISS:          0
L2C WRITEBACK ACCESS:     168229  HIT:     168184  MISS:         45
L2C PREFETCH  REQUESTED:          0  ISSUED:          0  USEFUL:          0  USELESS:          0
L2C AVERAGE MISS LATENCY: 120.163 cycles
LLC TOTAL     ACCESS:    8465304  HIT:    1079894  MISS:    7385410
LLC LOAD      ACCESS:    8375741  HIT:    1069358  MISS:    7306383
LLC RFO       ACCESS:       8141  HIT:        249  MISS:       7892
LLC PREFETCH  ACCESS:          0  HIT:          0  MISS:          0
LLC WRITEBACK ACCESS:      81422  HIT:      10287  MISS:      71135
LLC PREFETCH  REQUESTED:          0  ISSUED:          0  USEFUL:          0  USELESS:          0
LLC AVERAGE MISS LATENCY: 90.9695 cycles
Major fault: 0 Minor fault: 12421
==============================
Perceptron RRIP Stats:
   Num Updates:          293679
   Num Primary Trains:   1178
   Num Secondary Trains: 1447
==============================
primary_perceptron #0: 2 -4 0 0 0 -4 0 0 2 0 2 -2 0 2 8 -24 
secondary_perceptron #0: 1 -5 -1 1 -1 -3 -1 1 -1 1 1 1 -3 3 11 3 1 5 3 -1 -41 


DRAM Statistics
 CHANNEL 0
 RQ ROW_BUFFER_HIT:    6675842  ROW_BUFFER_MISS:     638433
 DBUS_CONGESTED:      50020
 WQ ROW_BUFFER_HIT:      26594  ROW_BUFFER_MISS:      51826  FULL:          0

 AVG_CONGESTED_CYCLE: 4

CPU 0 Branch Prediction Accuracy: 94.6645% MPKI: 12.6908 Average ROB Occupancy at Mispredict: 52.4925

Branch types
NOT_BRANCH: 762143497 76.2143%
BRANCH_DIRECT_JUMP: 24833668 2.48337%
BRANCH_INDIRECT: 0 0%
BRANCH_CONDITIONAL: 188060658 18.8061%
BRANCH_DIRECT_CALL: 12480831 1.24808%
BRANCH_INDIRECT_CALL: 86 8.6e-06%
BRANCH_RETURN: 12480917 1.24809%
BRANCH_OTHER: 0 0%

