
*** ChampSim Multicore Out-of-Order Simulator ***

Warmup Instructions: 100000000
Simulation Instructions: 1000000000
Number of CPUs: 1
LLC sets: 2048
LLC ways: 16
Off-chip DRAM Size: 4096 MB Channels: 1 Width: 64-bit Data Rate: 3200 MT/s

CPU 0 runs /scratch/user/kevin.weston/dpc3-traces/602.champsimtrace.xz
CPU 0 Bimodal branch predictor
Initialize DRRIP state
Assign rand_sets[0]: 454  LLC: 2048
rand_sets[0]: 454
Assign rand_sets[1]: 1662  LLC: 2048
rand_sets[1]: 1662
Assign rand_sets[2]: 1921  LLC: 2048
rand_sets[2]: 1921
Assign rand_sets[3]: 1131  LLC: 2048
rand_sets[3]: 1131
Assign rand_sets[4]: 331  LLC: 2048
rand_sets[4]: 331
Assign rand_sets[5]: 1531  LLC: 2048
rand_sets[5]: 1531
Assign rand_sets[6]: 482  LLC: 2048
rand_sets[6]: 482
Assign rand_sets[7]: 1275  LLC: 2048
rand_sets[7]: 1275
Assign rand_sets[8]: 1876  LLC: 2048
rand_sets[8]: 1876
Assign rand_sets[9]: 2038  LLC: 2048
rand_sets[9]: 2038
Assign rand_sets[10]: 701  LLC: 2048
rand_sets[10]: 701
Assign rand_sets[11]: 479  LLC: 2048
rand_sets[11]: 479
Assign rand_sets[12]: 892  LLC: 2048
rand_sets[12]: 892
Assign rand_sets[13]: 1820  LLC: 2048
rand_sets[13]: 1820
Assign rand_sets[14]: 1505  LLC: 2048
rand_sets[14]: 1505
Assign rand_sets[15]: 1159  LLC: 2048
rand_sets[15]: 1159
Assign rand_sets[16]: 513  LLC: 2048
rand_sets[16]: 513
Assign rand_sets[17]: 703  LLC: 2048
rand_sets[17]: 703
Assign rand_sets[18]: 561  LLC: 2048
rand_sets[18]: 561
Assign rand_sets[19]: 990  LLC: 2048
rand_sets[19]: 990
Assign rand_sets[20]: 342  LLC: 2048
rand_sets[20]: 342
Assign rand_sets[21]: 882  LLC: 2048
rand_sets[21]: 882
Assign rand_sets[22]: 15  LLC: 2048
rand_sets[22]: 15
Assign rand_sets[23]: 71  LLC: 2048
rand_sets[23]: 71
Assign rand_sets[24]: 1127  LLC: 2048
rand_sets[24]: 1127
Assign rand_sets[25]: 1382  LLC: 2048
rand_sets[25]: 1382
Assign rand_sets[26]: 647  LLC: 2048
rand_sets[26]: 647
Assign rand_sets[27]: 857  LLC: 2048
rand_sets[27]: 857
Assign rand_sets[28]: 1450  LLC: 2048
rand_sets[28]: 1450
Assign rand_sets[29]: 1160  LLC: 2048
rand_sets[29]: 1160
Assign rand_sets[30]: 1852  LLC: 2048
rand_sets[30]: 1852
Assign rand_sets[31]: 1881  LLC: 2048
rand_sets[31]: 1881
Assign rand_sets[32]: 1770  LLC: 2048
rand_sets[32]: 1770
Assign rand_sets[33]: 1622  LLC: 2048
rand_sets[33]: 1622
Assign rand_sets[34]: 275  LLC: 2048
rand_sets[34]: 275
Assign rand_sets[35]: 635  LLC: 2048
rand_sets[35]: 635
Assign rand_sets[36]: 466  LLC: 2048
rand_sets[36]: 466
Assign rand_sets[37]: 1413  LLC: 2048
rand_sets[37]: 1413
Assign rand_sets[38]: 417  LLC: 2048
rand_sets[38]: 417
Assign rand_sets[39]: 472  LLC: 2048
rand_sets[39]: 472
Assign rand_sets[40]: 1340  LLC: 2048
rand_sets[40]: 1340
Assign rand_sets[41]: 852  LLC: 2048
rand_sets[41]: 852
Assign rand_sets[42]: 1365  LLC: 2048
rand_sets[42]: 1365
Assign rand_sets[43]: 47  LLC: 2048
rand_sets[43]: 47
Assign rand_sets[44]: 823  LLC: 2048
rand_sets[44]: 823
Assign rand_sets[45]: 686  LLC: 2048
rand_sets[45]: 686
Assign rand_sets[46]: 1637  LLC: 2048
rand_sets[46]: 1637
Assign rand_sets[47]: 1115  LLC: 2048
rand_sets[47]: 1115
Assign rand_sets[48]: 986  LLC: 2048
rand_sets[48]: 986
Assign rand_sets[49]: 258  LLC: 2048
rand_sets[49]: 258
Assign rand_sets[50]: 633  LLC: 2048
rand_sets[50]: 633
Assign rand_sets[51]: 920  LLC: 2048
rand_sets[51]: 920
Assign rand_sets[52]: 204  LLC: 2048
rand_sets[52]: 204
Assign rand_sets[53]: 227  LLC: 2048
rand_sets[53]: 227
Assign rand_sets[54]: 1818  LLC: 2048
rand_sets[54]: 1818
Assign rand_sets[55]: 886  LLC: 2048
rand_sets[55]: 886
Assign rand_sets[56]: 1422  LLC: 2048
rand_sets[56]: 1422
Assign rand_sets[57]: 607  LLC: 2048
rand_sets[57]: 607
Assign rand_sets[58]: 217  LLC: 2048
rand_sets[58]: 217
Assign rand_sets[59]: 1945  LLC: 2048
rand_sets[59]: 1945
Assign rand_sets[60]: 143  LLC: 2048
rand_sets[60]: 143
Assign rand_sets[61]: 1311  LLC: 2048
rand_sets[61]: 1311
Assign rand_sets[62]: 319  LLC: 2048
rand_sets[62]: 319
Assign rand_sets[63]: 1846  LLC: 2048
rand_sets[63]: 1846
Heartbeat CPU 0 instructions: 10000001 cycles: 5015420 heartbeat IPC: 1.99385 cumulative IPC: 1.99385 (Simulation time: 0 hr 0 min 23 sec) 
Heartbeat CPU 0 instructions: 20000002 cycles: 10021559 heartbeat IPC: 1.99755 cumulative IPC: 1.9957 (Simulation time: 0 hr 0 min 46 sec) 
Heartbeat CPU 0 instructions: 30000000 cycles: 15029834 heartbeat IPC: 1.9967 cumulative IPC: 1.99603 (Simulation time: 0 hr 1 min 9 sec) 
Heartbeat CPU 0 instructions: 40000002 cycles: 20050938 heartbeat IPC: 1.99159 cumulative IPC: 1.99492 (Simulation time: 0 hr 1 min 32 sec) 
Heartbeat CPU 0 instructions: 50000000 cycles: 25061998 heartbeat IPC: 1.99559 cumulative IPC: 1.99505 (Simulation time: 0 hr 1 min 55 sec) 
Heartbeat CPU 0 instructions: 60000000 cycles: 30079057 heartbeat IPC: 1.9932 cumulative IPC: 1.99474 (Simulation time: 0 hr 2 min 18 sec) 
Heartbeat CPU 0 instructions: 70000002 cycles: 35084009 heartbeat IPC: 1.99802 cumulative IPC: 1.99521 (Simulation time: 0 hr 2 min 41 sec) 
Heartbeat CPU 0 instructions: 80000000 cycles: 40087412 heartbeat IPC: 1.99864 cumulative IPC: 1.99564 (Simulation time: 0 hr 3 min 4 sec) 
Heartbeat CPU 0 instructions: 90000000 cycles: 45099485 heartbeat IPC: 1.99518 cumulative IPC: 1.99559 (Simulation time: 0 hr 3 min 27 sec) 
Heartbeat CPU 0 instructions: 100000000 cycles: 50094960 heartbeat IPC: 2.00181 cumulative IPC: 1.99621 (Simulation time: 0 hr 3 min 49 sec) 

Warmup complete CPU 0 instructions: 100000004 cycles: 50094961 (Simulation time: 0 hr 3 min 49 sec) 

Heartbeat CPU 0 instructions: 110000000 cycles: 71159465 heartbeat IPC: 0.474732 cumulative IPC: 0.474732 (Simulation time: 0 hr 4 min 8 sec) 
Heartbeat CPU 0 instructions: 120000000 cycles: 92376411 heartbeat IPC: 0.471321 cumulative IPC: 0.473021 (Simulation time: 0 hr 4 min 27 sec) 
Heartbeat CPU 0 instructions: 130000003 cycles: 113705037 heartbeat IPC: 0.468854 cumulative IPC: 0.471623 (Simulation time: 0 hr 4 min 47 sec) 
Heartbeat CPU 0 instructions: 140000001 cycles: 135083985 heartbeat IPC: 0.46775 cumulative IPC: 0.470649 (Simulation time: 0 hr 5 min 7 sec) 
Heartbeat CPU 0 instructions: 150000000 cycles: 156614269 heartbeat IPC: 0.464462 cumulative IPC: 0.469398 (Simulation time: 0 hr 5 min 26 sec) 
Heartbeat CPU 0 instructions: 160000003 cycles: 176638106 heartbeat IPC: 0.499405 cumulative IPC: 0.474147 (Simulation time: 0 hr 5 min 45 sec) 
Heartbeat CPU 0 instructions: 170000000 cycles: 197609709 heartbeat IPC: 0.476835 cumulative IPC: 0.474529 (Simulation time: 0 hr 6 min 4 sec) 
Heartbeat CPU 0 instructions: 180000000 cycles: 218804333 heartbeat IPC: 0.471818 cumulative IPC: 0.474188 (Simulation time: 0 hr 6 min 24 sec) 
Heartbeat CPU 0 instructions: 190000002 cycles: 254439181 heartbeat IPC: 0.280624 cumulative IPC: 0.440433 (Simulation time: 0 hr 6 min 44 sec) 
Heartbeat CPU 0 instructions: 200000000 cycles: 279505698 heartbeat IPC: 0.398938 cumulative IPC: 0.435899 (Simulation time: 0 hr 7 min 4 sec) 
Heartbeat CPU 0 instructions: 210000000 cycles: 300457333 heartbeat IPC: 0.47729 cumulative IPC: 0.439363 (Simulation time: 0 hr 7 min 23 sec) 
Heartbeat CPU 0 instructions: 220000000 cycles: 320912977 heartbeat IPC: 0.488863 cumulative IPC: 0.443102 (Simulation time: 0 hr 7 min 42 sec) 
Heartbeat CPU 0 instructions: 230000002 cycles: 341508045 heartbeat IPC: 0.485553 cumulative IPC: 0.446102 (Simulation time: 0 hr 8 min 1 sec) 
Heartbeat CPU 0 instructions: 240000001 cycles: 362505736 heartbeat IPC: 0.476243 cumulative IPC: 0.448128 (Simulation time: 0 hr 8 min 21 sec) 
Heartbeat CPU 0 instructions: 250000000 cycles: 382872449 heartbeat IPC: 0.490997 cumulative IPC: 0.450752 (Simulation time: 0 hr 8 min 40 sec) 
Heartbeat CPU 0 instructions: 260000000 cycles: 403715684 heartbeat IPC: 0.479772 cumulative IPC: 0.452462 (Simulation time: 0 hr 8 min 59 sec) 
Heartbeat CPU 0 instructions: 270000000 cycles: 423920994 heartbeat IPC: 0.494919 cumulative IPC: 0.454757 (Simulation time: 0 hr 9 min 19 sec) 
Heartbeat CPU 0 instructions: 280000001 cycles: 444691676 heartbeat IPC: 0.481448 cumulative IPC: 0.456162 (Simulation time: 0 hr 9 min 38 sec) 
Heartbeat CPU 0 instructions: 290000002 cycles: 465679934 heartbeat IPC: 0.476457 cumulative IPC: 0.457187 (Simulation time: 0 hr 9 min 57 sec) 
Heartbeat CPU 0 instructions: 300000000 cycles: 485852567 heartbeat IPC: 0.495721 cumulative IPC: 0.458971 (Simulation time: 0 hr 10 min 16 sec) 
Heartbeat CPU 0 instructions: 310000000 cycles: 506637524 heartbeat IPC: 0.481117 cumulative IPC: 0.459979 (Simulation time: 0 hr 10 min 35 sec) 
Heartbeat CPU 0 instructions: 320000001 cycles: 527638546 heartbeat IPC: 0.476167 cumulative IPC: 0.460691 (Simulation time: 0 hr 10 min 54 sec) 
Heartbeat CPU 0 instructions: 330000000 cycles: 547735094 heartbeat IPC: 0.497598 cumulative IPC: 0.462181 (Simulation time: 0 hr 11 min 13 sec) 
Heartbeat CPU 0 instructions: 340000002 cycles: 568515107 heartbeat IPC: 0.481232 cumulative IPC: 0.462945 (Simulation time: 0 hr 11 min 33 sec) 
Heartbeat CPU 0 instructions: 350000000 cycles: 589529418 heartbeat IPC: 0.475866 cumulative IPC: 0.463448 (Simulation time: 0 hr 11 min 52 sec) 
Heartbeat CPU 0 instructions: 360000000 cycles: 609702375 heartbeat IPC: 0.495713 cumulative IPC: 0.464611 (Simulation time: 0 hr 12 min 11 sec) 
Heartbeat CPU 0 instructions: 370000000 cycles: 630532872 heartbeat IPC: 0.480065 cumulative IPC: 0.465166 (Simulation time: 0 hr 12 min 30 sec) 
Heartbeat CPU 0 instructions: 380000000 cycles: 651592153 heartbeat IPC: 0.47485 cumulative IPC: 0.465505 (Simulation time: 0 hr 12 min 49 sec) 
Heartbeat CPU 0 instructions: 390000000 cycles: 671872856 heartbeat IPC: 0.49308 cumulative IPC: 0.466404 (Simulation time: 0 hr 13 min 9 sec) 
Heartbeat CPU 0 instructions: 400000002 cycles: 692727149 heartbeat IPC: 0.479518 cumulative IPC: 0.46683 (Simulation time: 0 hr 13 min 28 sec) 
Heartbeat CPU 0 instructions: 410000002 cycles: 713766793 heartbeat IPC: 0.475293 cumulative IPC: 0.467098 (Simulation time: 0 hr 13 min 47 sec) 
Heartbeat CPU 0 instructions: 420000000 cycles: 735925000 heartbeat IPC: 0.4513 cumulative IPC: 0.466588 (Simulation time: 0 hr 14 min 7 sec) 
Heartbeat CPU 0 instructions: 430000001 cycles: 756736598 heartbeat IPC: 0.480501 cumulative IPC: 0.466998 (Simulation time: 0 hr 14 min 26 sec) 
Heartbeat CPU 0 instructions: 440000000 cycles: 777777435 heartbeat IPC: 0.475266 cumulative IPC: 0.467237 (Simulation time: 0 hr 14 min 45 sec) 
Heartbeat CPU 0 instructions: 450000002 cycles: 798000804 heartbeat IPC: 0.494478 cumulative IPC: 0.467973 (Simulation time: 0 hr 15 min 4 sec) 
Heartbeat CPU 0 instructions: 460000000 cycles: 818765604 heartbeat IPC: 0.481584 cumulative IPC: 0.468341 (Simulation time: 0 hr 15 min 24 sec) 
Heartbeat CPU 0 instructions: 470000000 cycles: 839746546 heartbeat IPC: 0.476623 cumulative IPC: 0.468561 (Simulation time: 0 hr 15 min 43 sec) 
Heartbeat CPU 0 instructions: 480000003 cycles: 860769573 heartbeat IPC: 0.475669 cumulative IPC: 0.468745 (Simulation time: 0 hr 16 min 2 sec) 
Heartbeat CPU 0 instructions: 490000000 cycles: 881567994 heartbeat IPC: 0.480806 cumulative IPC: 0.469047 (Simulation time: 0 hr 16 min 21 sec) 
Heartbeat CPU 0 instructions: 500000003 cycles: 901668639 heartbeat IPC: 0.497497 cumulative IPC: 0.469719 (Simulation time: 0 hr 16 min 41 sec) 
Heartbeat CPU 0 instructions: 510000000 cycles: 922370980 heartbeat IPC: 0.483037 cumulative IPC: 0.470035 (Simulation time: 0 hr 17 min 0 sec) 
Heartbeat CPU 0 instructions: 520000000 cycles: 943397176 heartbeat IPC: 0.475597 cumulative IPC: 0.470166 (Simulation time: 0 hr 17 min 19 sec) 
Heartbeat CPU 0 instructions: 530000000 cycles: 963360147 heartbeat IPC: 0.500927 cumulative IPC: 0.470838 (Simulation time: 0 hr 17 min 38 sec) 
Heartbeat CPU 0 instructions: 540000002 cycles: 984053309 heartbeat IPC: 0.483252 cumulative IPC: 0.471113 (Simulation time: 0 hr 17 min 57 sec) 
Heartbeat CPU 0 instructions: 550000000 cycles: 1005051682 heartbeat IPC: 0.476227 cumulative IPC: 0.471226 (Simulation time: 0 hr 18 min 17 sec) 
Heartbeat CPU 0 instructions: 560000003 cycles: 1027331487 heartbeat IPC: 0.448837 cumulative IPC: 0.470715 (Simulation time: 0 hr 18 min 36 sec) 
Heartbeat CPU 0 instructions: 570000001 cycles: 1048459843 heartbeat IPC: 0.473298 cumulative IPC: 0.47077 (Simulation time: 0 hr 18 min 55 sec) 
Heartbeat CPU 0 instructions: 580000000 cycles: 1069242586 heartbeat IPC: 0.481168 cumulative IPC: 0.470982 (Simulation time: 0 hr 19 min 15 sec) 
Heartbeat CPU 0 instructions: 590000000 cycles: 1089654739 heartbeat IPC: 0.489904 cumulative IPC: 0.471353 (Simulation time: 0 hr 19 min 34 sec) 
Heartbeat CPU 0 instructions: 600000000 cycles: 1110467471 heartbeat IPC: 0.480475 cumulative IPC: 0.471532 (Simulation time: 0 hr 19 min 53 sec) 
Heartbeat CPU 0 instructions: 610000001 cycles: 1131016103 heartbeat IPC: 0.48665 cumulative IPC: 0.47182 (Simulation time: 0 hr 20 min 12 sec) 
Heartbeat CPU 0 instructions: 620000001 cycles: 1151383414 heartbeat IPC: 0.490983 cumulative IPC: 0.472174 (Simulation time: 0 hr 20 min 32 sec) 
Heartbeat CPU 0 instructions: 630000000 cycles: 1172120791 heartbeat IPC: 0.482221 cumulative IPC: 0.47236 (Simulation time: 0 hr 20 min 51 sec) 
Heartbeat CPU 0 instructions: 640000002 cycles: 1192445546 heartbeat IPC: 0.492011 cumulative IPC: 0.47271 (Simulation time: 0 hr 21 min 10 sec) 
Heartbeat CPU 0 instructions: 650000001 cycles: 1213052447 heartbeat IPC: 0.485274 cumulative IPC: 0.472932 (Simulation time: 0 hr 21 min 29 sec) 
Heartbeat CPU 0 instructions: 660000000 cycles: 1233894032 heartbeat IPC: 0.47981 cumulative IPC: 0.473053 (Simulation time: 0 hr 21 min 48 sec) 
Heartbeat CPU 0 instructions: 670000001 cycles: 1254275550 heartbeat IPC: 0.490641 cumulative IPC: 0.473351 (Simulation time: 0 hr 22 min 7 sec) 
Heartbeat CPU 0 instructions: 680000000 cycles: 1274897995 heartbeat IPC: 0.484908 cumulative IPC: 0.473546 (Simulation time: 0 hr 22 min 27 sec) 
Heartbeat CPU 0 instructions: 690000000 cycles: 1295756074 heartbeat IPC: 0.479431 cumulative IPC: 0.473644 (Simulation time: 0 hr 22 min 46 sec) 
Heartbeat CPU 0 instructions: 700000003 cycles: 1316069167 heartbeat IPC: 0.492293 cumulative IPC: 0.473943 (Simulation time: 0 hr 23 min 5 sec) 
Heartbeat CPU 0 instructions: 710000001 cycles: 1336704038 heartbeat IPC: 0.484616 cumulative IPC: 0.474114 (Simulation time: 0 hr 23 min 24 sec) 
Heartbeat CPU 0 instructions: 720000000 cycles: 1357602210 heartbeat IPC: 0.478511 cumulative IPC: 0.474185 (Simulation time: 0 hr 23 min 44 sec) 
Heartbeat CPU 0 instructions: 730000000 cycles: 1377837308 heartbeat IPC: 0.494191 cumulative IPC: 0.47449 (Simulation time: 0 hr 24 min 3 sec) 
Heartbeat CPU 0 instructions: 740000003 cycles: 1398898376 heartbeat IPC: 0.47481 cumulative IPC: 0.474495 (Simulation time: 0 hr 24 min 22 sec) 
Heartbeat CPU 0 instructions: 750000003 cycles: 1420356875 heartbeat IPC: 0.466016 cumulative IPC: 0.474362 (Simulation time: 0 hr 24 min 42 sec) 
Heartbeat CPU 0 instructions: 760000001 cycles: 1455333846 heartbeat IPC: 0.285902 cumulative IPC: 0.469671 (Simulation time: 0 hr 25 min 2 sec) 
Heartbeat CPU 0 instructions: 770000000 cycles: 1481589954 heartbeat IPC: 0.380864 cumulative IPC: 0.468042 (Simulation time: 0 hr 25 min 22 sec) 
Heartbeat CPU 0 instructions: 780000001 cycles: 1502244524 heartbeat IPC: 0.484154 cumulative IPC: 0.468271 (Simulation time: 0 hr 25 min 42 sec) 
Heartbeat CPU 0 instructions: 790000003 cycles: 1523337601 heartbeat IPC: 0.474089 cumulative IPC: 0.468355 (Simulation time: 0 hr 26 min 1 sec) 
Heartbeat CPU 0 instructions: 800000000 cycles: 1543445108 heartbeat IPC: 0.497327 cumulative IPC: 0.468745 (Simulation time: 0 hr 26 min 20 sec) 
Heartbeat CPU 0 instructions: 810000001 cycles: 1564080683 heartbeat IPC: 0.4846 cumulative IPC: 0.468961 (Simulation time: 0 hr 26 min 39 sec) 
Heartbeat CPU 0 instructions: 820000001 cycles: 1585221600 heartbeat IPC: 0.473016 cumulative IPC: 0.469017 (Simulation time: 0 hr 26 min 59 sec) 
Heartbeat CPU 0 instructions: 830000001 cycles: 1605606029 heartbeat IPC: 0.490571 cumulative IPC: 0.469299 (Simulation time: 0 hr 27 min 18 sec) 
Heartbeat CPU 0 instructions: 840000003 cycles: 1626654427 heartbeat IPC: 0.475096 cumulative IPC: 0.469377 (Simulation time: 0 hr 27 min 37 sec) 
Heartbeat CPU 0 instructions: 850000003 cycles: 1646894511 heartbeat IPC: 0.494069 cumulative IPC: 0.46969 (Simulation time: 0 hr 27 min 57 sec) 
Heartbeat CPU 0 instructions: 860000002 cycles: 1667546270 heartbeat IPC: 0.48422 cumulative IPC: 0.469875 (Simulation time: 0 hr 28 min 16 sec) 
Heartbeat CPU 0 instructions: 870000000 cycles: 1688517294 heartbeat IPC: 0.476848 cumulative IPC: 0.469964 (Simulation time: 0 hr 28 min 36 sec) 
Heartbeat CPU 0 instructions: 880000000 cycles: 1708625057 heartbeat IPC: 0.49732 cumulative IPC: 0.470296 (Simulation time: 0 hr 28 min 55 sec) 
Heartbeat CPU 0 instructions: 890000001 cycles: 1729257520 heartbeat IPC: 0.484673 cumulative IPC: 0.470473 (Simulation time: 0 hr 29 min 14 sec) 
Heartbeat CPU 0 instructions: 900000000 cycles: 1750337354 heartbeat IPC: 0.474387 cumulative IPC: 0.470521 (Simulation time: 0 hr 29 min 33 sec) 
Heartbeat CPU 0 instructions: 910000000 cycles: 1770530226 heartbeat IPC: 0.495224 cumulative IPC: 0.470811 (Simulation time: 0 hr 29 min 53 sec) 
Heartbeat CPU 0 instructions: 920000000 cycles: 1791202543 heartbeat IPC: 0.483739 cumulative IPC: 0.470965 (Simulation time: 0 hr 30 min 12 sec) 
Heartbeat CPU 0 instructions: 930000001 cycles: 1812338243 heartbeat IPC: 0.473133 cumulative IPC: 0.470991 (Simulation time: 0 hr 30 min 31 sec) 
Heartbeat CPU 0 instructions: 940000001 cycles: 1832412248 heartbeat IPC: 0.498157 cumulative IPC: 0.471297 (Simulation time: 0 hr 30 min 51 sec) 
Heartbeat CPU 0 instructions: 950000000 cycles: 1853081067 heartbeat IPC: 0.483821 cumulative IPC: 0.47144 (Simulation time: 0 hr 31 min 10 sec) 
Heartbeat CPU 0 instructions: 960000002 cycles: 1874307111 heartbeat IPC: 0.471119 cumulative IPC: 0.471436 (Simulation time: 0 hr 31 min 29 sec) 
Heartbeat CPU 0 instructions: 970000001 cycles: 1894485948 heartbeat IPC: 0.495569 cumulative IPC: 0.4717 (Simulation time: 0 hr 31 min 48 sec) 
Heartbeat CPU 0 instructions: 980000001 cycles: 1915140756 heartbeat IPC: 0.484149 cumulative IPC: 0.471838 (Simulation time: 0 hr 32 min 8 sec) 
Heartbeat CPU 0 instructions: 990000000 cycles: 1936283666 heartbeat IPC: 0.472972 cumulative IPC: 0.471851 (Simulation time: 0 hr 32 min 27 sec) 
Heartbeat CPU 0 instructions: 1000000000 cycles: 1956268865 heartbeat IPC: 0.50037 cumulative IPC: 0.47215 (Simulation time: 0 hr 32 min 46 sec) 
Heartbeat CPU 0 instructions: 1010000001 cycles: 1976965707 heartbeat IPC: 0.483166 cumulative IPC: 0.472268 (Simulation time: 0 hr 33 min 6 sec) 
Heartbeat CPU 0 instructions: 1020000002 cycles: 1997879250 heartbeat IPC: 0.478159 cumulative IPC: 0.472332 (Simulation time: 0 hr 33 min 25 sec) 
Heartbeat CPU 0 instructions: 1030000002 cycles: 2017987827 heartbeat IPC: 0.4973 cumulative IPC: 0.472587 (Simulation time: 0 hr 33 min 44 sec) 
Heartbeat CPU 0 instructions: 1040000002 cycles: 2038682664 heartbeat IPC: 0.483212 cumulative IPC: 0.472697 (Simulation time: 0 hr 34 min 3 sec) 
Heartbeat CPU 0 instructions: 1050000000 cycles: 2059596308 heartbeat IPC: 0.478157 cumulative IPC: 0.472754 (Simulation time: 0 hr 34 min 23 sec) 
Heartbeat CPU 0 instructions: 1060000000 cycles: 2079763809 heartbeat IPC: 0.495847 cumulative IPC: 0.472984 (Simulation time: 0 hr 34 min 42 sec) 
Heartbeat CPU 0 instructions: 1070000003 cycles: 2100433883 heartbeat IPC: 0.483791 cumulative IPC: 0.473093 (Simulation time: 0 hr 35 min 1 sec) 
Heartbeat CPU 0 instructions: 1080000000 cycles: 2121345845 heartbeat IPC: 0.478195 cumulative IPC: 0.473144 (Simulation time: 0 hr 35 min 21 sec) 
Heartbeat CPU 0 instructions: 1090000000 cycles: 2141570529 heartbeat IPC: 0.494445 cumulative IPC: 0.47335 (Simulation time: 0 hr 35 min 40 sec) 
Heartbeat CPU 0 instructions: 1100000000 cycles: 2162266289 heartbeat IPC: 0.483191 cumulative IPC: 0.473446 (Simulation time: 0 hr 35 min 59 sec) 
Finished CPU 0 instructions: 1000000000 cycles: 2112171331 cumulative IPC: 0.473446 (Simulation time: 0 hr 35 min 59 sec) 

ChampSim completed all CPUs

Region of Interest Statistics

CPU 0 cumulative IPC: 0.473446 instructions: 1000000000 cycles: 2112171331
L1D TOTAL     ACCESS:  302977874  HIT:  286162128  MISS:   16815746
L1D LOAD      ACCESS:  203154479  HIT:  186349247  MISS:   16805232
L1D RFO       ACCESS:   99823395  HIT:   99812881  MISS:      10514
L1D PREFETCH  ACCESS:          0  HIT:          0  MISS:          0
L1D WRITEBACK ACCESS:          0  HIT:          0  MISS:          0
L1D PREFETCH  REQUESTED:          0  ISSUED:          0  USEFUL:          0  USELESS:          0
L1D AVERAGE MISS LATENCY: 72.2975 cycles
L1I TOTAL     ACCESS:  151449903  HIT:  151449902  MISS:          1
L1I LOAD      ACCESS:  151449903  HIT:  151449902  MISS:          1
L1I RFO       ACCESS:          0  HIT:          0  MISS:          0
L1I PREFETCH  ACCESS:          0  HIT:          0  MISS:          0
L1I WRITEBACK ACCESS:          0  HIT:          0  MISS:          0
L1I PREFETCH  REQUESTED:          0  ISSUED:          0  USEFUL:          0  USELESS:          0
L1I AVERAGE MISS LATENCY: 235 cycles
L2C TOTAL     ACCESS:   16983976  HIT:    8599705  MISS:    8384271
L2C LOAD      ACCESS:   16805233  HIT:    8429141  MISS:    8376092
L2C RFO       ACCESS:      10514  HIT:       2381  MISS:       8133
L2C PREFETCH  ACCESS:          0  HIT:          0  MISS:          0
L2C WRITEBACK ACCESS:     168229  HIT:     168183  MISS:         46
L2C PREFETCH  REQUESTED:          0  ISSUED:          0  USEFUL:          0  USELESS:          0
L2C AVERAGE MISS LATENCY: 120.821 cycles
LLC TOTAL     ACCESS:    8465603  HIT:     976920  MISS:    7488683
LLC LOAD      ACCESS:    8376092  HIT:     956941  MISS:    7419151
LLC RFO       ACCESS:       8133  HIT:        260  MISS:       7873
LLC PREFETCH  ACCESS:          0  HIT:          0  MISS:          0
LLC WRITEBACK ACCESS:      81378  HIT:      19719  MISS:      61659
LLC PREFETCH  REQUESTED:          0  ISSUED:          0  USEFUL:          0  USELESS:          0
LLC AVERAGE MISS LATENCY: 90.4488 cycles
Major fault: 0 Minor fault: 12421

DRAM Statistics
 CHANNEL 0
 RQ ROW_BUFFER_HIT:    6825769  ROW_BUFFER_MISS:     601255
 DBUS_CONGESTED:      42527
 WQ ROW_BUFFER_HIT:      21774  ROW_BUFFER_MISS:      53726  FULL:          0

 AVG_CONGESTED_CYCLE: 4

CPU 0 Branch Prediction Accuracy: 94.6645% MPKI: 12.6908 Average ROB Occupancy at Mispredict: 52.4829

Branch types
NOT_BRANCH: 762143497 76.2143%
BRANCH_DIRECT_JUMP: 24833668 2.48337%
BRANCH_INDIRECT: 0 0%
BRANCH_CONDITIONAL: 188060658 18.8061%
BRANCH_DIRECT_CALL: 12480831 1.24808%
BRANCH_INDIRECT_CALL: 86 8.6e-06%
BRANCH_RETURN: 12480917 1.24809%
BRANCH_OTHER: 0 0%

