
*** ChampSim Multicore Out-of-Order Simulator ***

Warmup Instructions: 100000000
Simulation Instructions: 1000000000
Number of CPUs: 1
LLC sets: 2048
LLC ways: 16
Off-chip DRAM Size: 4096 MB Channels: 1 Width: 64-bit Data Rate: 3200 MT/s

CPU 0 runs /scratch/user/kevin.weston/dpc3-traces/603.champsimtrace.xz
CPU 0 Bimodal branch predictor
Initialize RRPV
Initialize PRRIP state
Heartbeat CPU 0 instructions: 10000000 cycles: 3409066 heartbeat IPC: 2.93335 cumulative IPC: 2.93335 (Simulation time: 0 hr 0 min 17 sec) 
Heartbeat CPU 0 instructions: 20000003 cycles: 6807784 heartbeat IPC: 2.94229 cumulative IPC: 2.93781 (Simulation time: 0 hr 0 min 36 sec) 
Heartbeat CPU 0 instructions: 30000002 cycles: 10206664 heartbeat IPC: 2.94215 cumulative IPC: 2.93926 (Simulation time: 0 hr 0 min 55 sec) 
Heartbeat CPU 0 instructions: 40000002 cycles: 13618411 heartbeat IPC: 2.93105 cumulative IPC: 2.9372 (Simulation time: 0 hr 1 min 13 sec) 
Heartbeat CPU 0 instructions: 50000003 cycles: 17027550 heartbeat IPC: 2.93329 cumulative IPC: 2.93642 (Simulation time: 0 hr 1 min 30 sec) 
Heartbeat CPU 0 instructions: 60000003 cycles: 20427740 heartbeat IPC: 2.94101 cumulative IPC: 2.93718 (Simulation time: 0 hr 1 min 47 sec) 
Heartbeat CPU 0 instructions: 70000002 cycles: 23820424 heartbeat IPC: 2.94752 cumulative IPC: 2.93865 (Simulation time: 0 hr 2 min 4 sec) 
Heartbeat CPU 0 instructions: 80000000 cycles: 27213998 heartbeat IPC: 2.94675 cumulative IPC: 2.93966 (Simulation time: 0 hr 2 min 21 sec) 
Heartbeat CPU 0 instructions: 90000003 cycles: 30612827 heartbeat IPC: 2.94219 cumulative IPC: 2.93994 (Simulation time: 0 hr 2 min 38 sec) 
Heartbeat CPU 0 instructions: 100000000 cycles: 33993295 heartbeat IPC: 2.95817 cumulative IPC: 2.94176 (Simulation time: 0 hr 2 min 55 sec) 

Warmup complete CPU 0 instructions: 100000004 cycles: 33993296 (Simulation time: 0 hr 2 min 55 sec) 

Heartbeat CPU 0 instructions: 110000000 cycles: 42324555 heartbeat IPC: 1.2003 cumulative IPC: 1.2003 (Simulation time: 0 hr 3 min 8 sec) 
Heartbeat CPU 0 instructions: 120000002 cycles: 50698992 heartbeat IPC: 1.19411 cumulative IPC: 1.1972 (Simulation time: 0 hr 3 min 20 sec) 
Heartbeat CPU 0 instructions: 130000001 cycles: 59168309 heartbeat IPC: 1.18073 cumulative IPC: 1.19166 (Simulation time: 0 hr 3 min 32 sec) 
Heartbeat CPU 0 instructions: 140000002 cycles: 67798640 heartbeat IPC: 1.1587 cumulative IPC: 1.18324 (Simulation time: 0 hr 3 min 45 sec) 
Heartbeat CPU 0 instructions: 150000001 cycles: 76271189 heartbeat IPC: 1.18028 cumulative IPC: 1.18265 (Simulation time: 0 hr 3 min 57 sec) 
Heartbeat CPU 0 instructions: 160000000 cycles: 84685298 heartbeat IPC: 1.18848 cumulative IPC: 1.18362 (Simulation time: 0 hr 4 min 9 sec) 
Heartbeat CPU 0 instructions: 170000000 cycles: 93260581 heartbeat IPC: 1.16614 cumulative IPC: 1.18109 (Simulation time: 0 hr 4 min 21 sec) 
Heartbeat CPU 0 instructions: 180000000 cycles: 101830928 heartbeat IPC: 1.16681 cumulative IPC: 1.17929 (Simulation time: 0 hr 4 min 34 sec) 
Heartbeat CPU 0 instructions: 190000000 cycles: 110367143 heartbeat IPC: 1.17148 cumulative IPC: 1.17841 (Simulation time: 0 hr 4 min 47 sec) 
Heartbeat CPU 0 instructions: 200000000 cycles: 118696413 heartbeat IPC: 1.20059 cumulative IPC: 1.18059 (Simulation time: 0 hr 4 min 59 sec) 
Heartbeat CPU 0 instructions: 210000001 cycles: 127125381 heartbeat IPC: 1.18639 cumulative IPC: 1.18112 (Simulation time: 0 hr 5 min 11 sec) 
Heartbeat CPU 0 instructions: 220000000 cycles: 135620396 heartbeat IPC: 1.17716 cumulative IPC: 1.18079 (Simulation time: 0 hr 5 min 24 sec) 
Heartbeat CPU 0 instructions: 230000001 cycles: 144047516 heartbeat IPC: 1.18665 cumulative IPC: 1.18124 (Simulation time: 0 hr 5 min 37 sec) 
Heartbeat CPU 0 instructions: 240000000 cycles: 152501478 heartbeat IPC: 1.18288 cumulative IPC: 1.18135 (Simulation time: 0 hr 5 min 49 sec) 
Heartbeat CPU 0 instructions: 250000000 cycles: 160876965 heartbeat IPC: 1.19396 cumulative IPC: 1.18219 (Simulation time: 0 hr 6 min 2 sec) 
Heartbeat CPU 0 instructions: 260000001 cycles: 169288420 heartbeat IPC: 1.18886 cumulative IPC: 1.1826 (Simulation time: 0 hr 6 min 14 sec) 
Heartbeat CPU 0 instructions: 270000002 cycles: 177721809 heartbeat IPC: 1.18576 cumulative IPC: 1.18279 (Simulation time: 0 hr 6 min 26 sec) 
Heartbeat CPU 0 instructions: 280000003 cycles: 186044256 heartbeat IPC: 1.20157 cumulative IPC: 1.18381 (Simulation time: 0 hr 6 min 38 sec) 
Heartbeat CPU 0 instructions: 290000000 cycles: 194453170 heartbeat IPC: 1.18921 cumulative IPC: 1.1841 (Simulation time: 0 hr 6 min 50 sec) 
Heartbeat CPU 0 instructions: 300000002 cycles: 202886190 heartbeat IPC: 1.18582 cumulative IPC: 1.18418 (Simulation time: 0 hr 7 min 3 sec) 
Heartbeat CPU 0 instructions: 310000001 cycles: 211225933 heartbeat IPC: 1.19908 cumulative IPC: 1.18488 (Simulation time: 0 hr 7 min 15 sec) 
Heartbeat CPU 0 instructions: 320000002 cycles: 219682647 heartbeat IPC: 1.18249 cumulative IPC: 1.18477 (Simulation time: 0 hr 7 min 28 sec) 
Heartbeat CPU 0 instructions: 330000000 cycles: 228150145 heartbeat IPC: 1.18099 cumulative IPC: 1.18461 (Simulation time: 0 hr 7 min 40 sec) 
Heartbeat CPU 0 instructions: 340000000 cycles: 236637939 heartbeat IPC: 1.17816 cumulative IPC: 1.18434 (Simulation time: 0 hr 7 min 52 sec) 
Heartbeat CPU 0 instructions: 350000002 cycles: 245074411 heartbeat IPC: 1.18533 cumulative IPC: 1.18438 (Simulation time: 0 hr 8 min 5 sec) 
Heartbeat CPU 0 instructions: 360000000 cycles: 253589933 heartbeat IPC: 1.17433 cumulative IPC: 1.18399 (Simulation time: 0 hr 8 min 17 sec) 
Heartbeat CPU 0 instructions: 370000001 cycles: 261939588 heartbeat IPC: 1.19765 cumulative IPC: 1.18449 (Simulation time: 0 hr 8 min 30 sec) 
Heartbeat CPU 0 instructions: 380000000 cycles: 270488881 heartbeat IPC: 1.16969 cumulative IPC: 1.18395 (Simulation time: 0 hr 8 min 42 sec) 
Heartbeat CPU 0 instructions: 390000003 cycles: 278911390 heartbeat IPC: 1.1873 cumulative IPC: 1.18407 (Simulation time: 0 hr 8 min 54 sec) 
Heartbeat CPU 0 instructions: 400000001 cycles: 287497474 heartbeat IPC: 1.16468 cumulative IPC: 1.18341 (Simulation time: 0 hr 9 min 7 sec) 
Heartbeat CPU 0 instructions: 410000001 cycles: 296008428 heartbeat IPC: 1.17496 cumulative IPC: 1.18314 (Simulation time: 0 hr 9 min 19 sec) 
Heartbeat CPU 0 instructions: 420000000 cycles: 304478724 heartbeat IPC: 1.1806 cumulative IPC: 1.18306 (Simulation time: 0 hr 9 min 31 sec) 
Heartbeat CPU 0 instructions: 430000002 cycles: 312956783 heartbeat IPC: 1.17952 cumulative IPC: 1.18295 (Simulation time: 0 hr 9 min 44 sec) 
Heartbeat CPU 0 instructions: 440000000 cycles: 321513738 heartbeat IPC: 1.16864 cumulative IPC: 1.18252 (Simulation time: 0 hr 9 min 56 sec) 
Heartbeat CPU 0 instructions: 450000003 cycles: 329898099 heartbeat IPC: 1.1927 cumulative IPC: 1.18281 (Simulation time: 0 hr 10 min 9 sec) 
Heartbeat CPU 0 instructions: 460000000 cycles: 338266087 heartbeat IPC: 1.19503 cumulative IPC: 1.18315 (Simulation time: 0 hr 10 min 21 sec) 
Heartbeat CPU 0 instructions: 470000000 cycles: 346533446 heartbeat IPC: 1.20958 cumulative IPC: 1.18385 (Simulation time: 0 hr 10 min 33 sec) 
Heartbeat CPU 0 instructions: 480000001 cycles: 354850461 heartbeat IPC: 1.20235 cumulative IPC: 1.18433 (Simulation time: 0 hr 10 min 45 sec) 
Heartbeat CPU 0 instructions: 490000000 cycles: 363120883 heartbeat IPC: 1.20913 cumulative IPC: 1.18495 (Simulation time: 0 hr 10 min 57 sec) 
Heartbeat CPU 0 instructions: 500000001 cycles: 371390369 heartbeat IPC: 1.20927 cumulative IPC: 1.18555 (Simulation time: 0 hr 11 min 9 sec) 
Heartbeat CPU 0 instructions: 510000001 cycles: 379651332 heartbeat IPC: 1.21051 cumulative IPC: 1.18614 (Simulation time: 0 hr 11 min 21 sec) 
Heartbeat CPU 0 instructions: 520000002 cycles: 387917566 heartbeat IPC: 1.20974 cumulative IPC: 1.18669 (Simulation time: 0 hr 11 min 33 sec) 
Heartbeat CPU 0 instructions: 530000003 cycles: 396035727 heartbeat IPC: 1.23181 cumulative IPC: 1.18771 (Simulation time: 0 hr 11 min 51 sec) 
Heartbeat CPU 0 instructions: 540000000 cycles: 404085467 heartbeat IPC: 1.24228 cumulative IPC: 1.18889 (Simulation time: 0 hr 12 min 7 sec) 
Heartbeat CPU 0 instructions: 550000000 cycles: 412344861 heartbeat IPC: 1.21074 cumulative IPC: 1.18937 (Simulation time: 0 hr 12 min 19 sec) 
Heartbeat CPU 0 instructions: 560000002 cycles: 420610482 heartbeat IPC: 1.20983 cumulative IPC: 1.18981 (Simulation time: 0 hr 12 min 31 sec) 
Heartbeat CPU 0 instructions: 570000001 cycles: 428873449 heartbeat IPC: 1.21022 cumulative IPC: 1.19023 (Simulation time: 0 hr 12 min 43 sec) 
Heartbeat CPU 0 instructions: 580000000 cycles: 437122308 heartbeat IPC: 1.21229 cumulative IPC: 1.19069 (Simulation time: 0 hr 12 min 55 sec) 
Heartbeat CPU 0 instructions: 590000001 cycles: 445392280 heartbeat IPC: 1.20919 cumulative IPC: 1.19106 (Simulation time: 0 hr 13 min 7 sec) 
Heartbeat CPU 0 instructions: 600000003 cycles: 453660354 heartbeat IPC: 1.20947 cumulative IPC: 1.19142 (Simulation time: 0 hr 13 min 19 sec) 
Heartbeat CPU 0 instructions: 610000000 cycles: 461916835 heartbeat IPC: 1.21117 cumulative IPC: 1.1918 (Simulation time: 0 hr 13 min 31 sec) 
Heartbeat CPU 0 instructions: 620000003 cycles: 470193435 heartbeat IPC: 1.20823 cumulative IPC: 1.19211 (Simulation time: 0 hr 13 min 43 sec) 
Heartbeat CPU 0 instructions: 630000001 cycles: 478470978 heartbeat IPC: 1.20809 cumulative IPC: 1.19241 (Simulation time: 0 hr 13 min 55 sec) 
Heartbeat CPU 0 instructions: 640000003 cycles: 486754691 heartbeat IPC: 1.20719 cumulative IPC: 1.19268 (Simulation time: 0 hr 14 min 7 sec) 
Heartbeat CPU 0 instructions: 650000003 cycles: 495027525 heartbeat IPC: 1.20878 cumulative IPC: 1.19297 (Simulation time: 0 hr 14 min 19 sec) 
Heartbeat CPU 0 instructions: 660000000 cycles: 503400886 heartbeat IPC: 1.19426 cumulative IPC: 1.19299 (Simulation time: 0 hr 14 min 31 sec) 
Heartbeat CPU 0 instructions: 670000002 cycles: 511877047 heartbeat IPC: 1.17978 cumulative IPC: 1.19276 (Simulation time: 0 hr 14 min 44 sec) 
Heartbeat CPU 0 instructions: 680000003 cycles: 520410777 heartbeat IPC: 1.17182 cumulative IPC: 1.19239 (Simulation time: 0 hr 14 min 57 sec) 
Heartbeat CPU 0 instructions: 690000003 cycles: 528887050 heartbeat IPC: 1.17976 cumulative IPC: 1.19218 (Simulation time: 0 hr 15 min 9 sec) 
Heartbeat CPU 0 instructions: 700000000 cycles: 537275238 heartbeat IPC: 1.19215 cumulative IPC: 1.19217 (Simulation time: 0 hr 15 min 22 sec) 
Heartbeat CPU 0 instructions: 710000000 cycles: 545798205 heartbeat IPC: 1.1733 cumulative IPC: 1.19186 (Simulation time: 0 hr 15 min 34 sec) 
Heartbeat CPU 0 instructions: 720000001 cycles: 554439688 heartbeat IPC: 1.15721 cumulative IPC: 1.19129 (Simulation time: 0 hr 15 min 46 sec) 
Heartbeat CPU 0 instructions: 730000002 cycles: 562971860 heartbeat IPC: 1.17203 cumulative IPC: 1.19097 (Simulation time: 0 hr 15 min 59 sec) 
Heartbeat CPU 0 instructions: 740000001 cycles: 571407493 heartbeat IPC: 1.18545 cumulative IPC: 1.19089 (Simulation time: 0 hr 16 min 11 sec) 
Heartbeat CPU 0 instructions: 750000000 cycles: 579943433 heartbeat IPC: 1.17152 cumulative IPC: 1.19058 (Simulation time: 0 hr 16 min 24 sec) 
Heartbeat CPU 0 instructions: 760000000 cycles: 588401865 heartbeat IPC: 1.18225 cumulative IPC: 1.19046 (Simulation time: 0 hr 16 min 36 sec) 
Heartbeat CPU 0 instructions: 770000000 cycles: 596760716 heartbeat IPC: 1.19634 cumulative IPC: 1.19055 (Simulation time: 0 hr 16 min 49 sec) 
Heartbeat CPU 0 instructions: 780000002 cycles: 605181162 heartbeat IPC: 1.18759 cumulative IPC: 1.1905 (Simulation time: 0 hr 17 min 1 sec) 
Heartbeat CPU 0 instructions: 790000003 cycles: 613506576 heartbeat IPC: 1.20114 cumulative IPC: 1.19065 (Simulation time: 0 hr 17 min 14 sec) 
Heartbeat CPU 0 instructions: 800000002 cycles: 621916172 heartbeat IPC: 1.18912 cumulative IPC: 1.19063 (Simulation time: 0 hr 17 min 26 sec) 
Heartbeat CPU 0 instructions: 810000002 cycles: 630320419 heartbeat IPC: 1.18987 cumulative IPC: 1.19062 (Simulation time: 0 hr 17 min 38 sec) 
Heartbeat CPU 0 instructions: 820000000 cycles: 638728077 heartbeat IPC: 1.18939 cumulative IPC: 1.1906 (Simulation time: 0 hr 17 min 51 sec) 
Heartbeat CPU 0 instructions: 830000002 cycles: 647075748 heartbeat IPC: 1.19794 cumulative IPC: 1.1907 (Simulation time: 0 hr 18 min 3 sec) 
Heartbeat CPU 0 instructions: 840000003 cycles: 655508637 heartbeat IPC: 1.18583 cumulative IPC: 1.19064 (Simulation time: 0 hr 18 min 15 sec) 
Heartbeat CPU 0 instructions: 850000001 cycles: 663843946 heartbeat IPC: 1.19972 cumulative IPC: 1.19076 (Simulation time: 0 hr 18 min 27 sec) 
Heartbeat CPU 0 instructions: 860000003 cycles: 672280260 heartbeat IPC: 1.18535 cumulative IPC: 1.19069 (Simulation time: 0 hr 18 min 40 sec) 
Heartbeat CPU 0 instructions: 870000000 cycles: 680623736 heartbeat IPC: 1.19854 cumulative IPC: 1.19079 (Simulation time: 0 hr 18 min 52 sec) 
Heartbeat CPU 0 instructions: 880000000 cycles: 689089532 heartbeat IPC: 1.18122 cumulative IPC: 1.19066 (Simulation time: 0 hr 19 min 4 sec) 
Heartbeat CPU 0 instructions: 890000003 cycles: 697436521 heartbeat IPC: 1.19804 cumulative IPC: 1.19076 (Simulation time: 0 hr 19 min 17 sec) 
Heartbeat CPU 0 instructions: 900000000 cycles: 705869820 heartbeat IPC: 1.18578 cumulative IPC: 1.19069 (Simulation time: 0 hr 19 min 29 sec) 
Heartbeat CPU 0 instructions: 910000001 cycles: 714346918 heartbeat IPC: 1.17965 cumulative IPC: 1.19056 (Simulation time: 0 hr 19 min 42 sec) 
Heartbeat CPU 0 instructions: 920000001 cycles: 722710376 heartbeat IPC: 1.19568 cumulative IPC: 1.19062 (Simulation time: 0 hr 19 min 54 sec) 
Heartbeat CPU 0 instructions: 930000000 cycles: 731061238 heartbeat IPC: 1.19748 cumulative IPC: 1.1907 (Simulation time: 0 hr 20 min 6 sec) 
Heartbeat CPU 0 instructions: 940000002 cycles: 739530201 heartbeat IPC: 1.18078 cumulative IPC: 1.19058 (Simulation time: 0 hr 20 min 18 sec) 
Heartbeat CPU 0 instructions: 950000001 cycles: 748098008 heartbeat IPC: 1.16716 cumulative IPC: 1.1903 (Simulation time: 0 hr 20 min 31 sec) 
Heartbeat CPU 0 instructions: 960000000 cycles: 756546070 heartbeat IPC: 1.1837 cumulative IPC: 1.19022 (Simulation time: 0 hr 20 min 43 sec) 
Heartbeat CPU 0 instructions: 970000002 cycles: 765022304 heartbeat IPC: 1.17977 cumulative IPC: 1.1901 (Simulation time: 0 hr 20 min 55 sec) 
Heartbeat CPU 0 instructions: 980000000 cycles: 773729419 heartbeat IPC: 1.14849 cumulative IPC: 1.18961 (Simulation time: 0 hr 21 min 8 sec) 
Heartbeat CPU 0 instructions: 990000000 cycles: 782161801 heartbeat IPC: 1.1859 cumulative IPC: 1.18957 (Simulation time: 0 hr 21 min 20 sec) 
Heartbeat CPU 0 instructions: 1000000003 cycles: 790700788 heartbeat IPC: 1.1711 cumulative IPC: 1.18936 (Simulation time: 0 hr 21 min 33 sec) 
Heartbeat CPU 0 instructions: 1010000001 cycles: 799172513 heartbeat IPC: 1.1804 cumulative IPC: 1.18926 (Simulation time: 0 hr 21 min 45 sec) 
Heartbeat CPU 0 instructions: 1020000002 cycles: 807524222 heartbeat IPC: 1.19736 cumulative IPC: 1.18935 (Simulation time: 0 hr 21 min 57 sec) 
Heartbeat CPU 0 instructions: 1030000000 cycles: 815918529 heartbeat IPC: 1.19128 cumulative IPC: 1.18937 (Simulation time: 0 hr 22 min 10 sec) 
Heartbeat CPU 0 instructions: 1040000001 cycles: 824240348 heartbeat IPC: 1.20166 cumulative IPC: 1.1895 (Simulation time: 0 hr 22 min 22 sec) 
Heartbeat CPU 0 instructions: 1050000001 cycles: 832511495 heartbeat IPC: 1.20902 cumulative IPC: 1.1897 (Simulation time: 0 hr 22 min 34 sec) 
Heartbeat CPU 0 instructions: 1060000000 cycles: 840809242 heartbeat IPC: 1.20515 cumulative IPC: 1.18986 (Simulation time: 0 hr 22 min 46 sec) 
Heartbeat CPU 0 instructions: 1070000000 cycles: 849076081 heartbeat IPC: 1.20965 cumulative IPC: 1.19006 (Simulation time: 0 hr 22 min 58 sec) 
Heartbeat CPU 0 instructions: 1080000001 cycles: 857325874 heartbeat IPC: 1.21215 cumulative IPC: 1.19028 (Simulation time: 0 hr 23 min 11 sec) 
Heartbeat CPU 0 instructions: 1090000003 cycles: 865590173 heartbeat IPC: 1.21002 cumulative IPC: 1.19048 (Simulation time: 0 hr 23 min 23 sec) 
Heartbeat CPU 0 instructions: 1100000000 cycles: 873865728 heartbeat IPC: 1.20838 cumulative IPC: 1.19066 (Simulation time: 0 hr 23 min 35 sec) 
Finished CPU 0 instructions: 1000000000 cycles: 839872439 cumulative IPC: 1.19066 (Simulation time: 0 hr 23 min 35 sec) 

ChampSim completed all CPUs

Region of Interest Statistics

CPU 0 cumulative IPC: 1.19066 instructions: 1000000000 cycles: 839872439
L1D TOTAL     ACCESS:  218435136  HIT:  218268116  MISS:     167020
L1D LOAD      ACCESS:  180607647  HIT:  180576772  MISS:      30875
L1D RFO       ACCESS:   37827489  HIT:   37691344  MISS:     136145
L1D PREFETCH  ACCESS:          0  HIT:          0  MISS:          0
L1D WRITEBACK ACCESS:          0  HIT:          0  MISS:          0
L1D PREFETCH  REQUESTED:          0  ISSUED:          0  USEFUL:          0  USELESS:          0
L1D AVERAGE MISS LATENCY: 204.864 cycles
L1I TOTAL     ACCESS:  211038863  HIT:  211038863  MISS:          0
L1I LOAD      ACCESS:  211038863  HIT:  211038863  MISS:          0
L1I RFO       ACCESS:          0  HIT:          0  MISS:          0
L1I PREFETCH  ACCESS:          0  HIT:          0  MISS:          0
L1I WRITEBACK ACCESS:          0  HIT:          0  MISS:          0
L1I PREFETCH  REQUESTED:          0  ISSUED:          0  USEFUL:          0  USELESS:          0
L1I AVERAGE MISS LATENCY: -nan cycles
L2C TOTAL     ACCESS:     303344  HIT:     148946  MISS:     154398
L2C LOAD      ACCESS:      30875  HIT:       5116  MISS:      25759
L2C RFO       ACCESS:     136145  HIT:       7821  MISS:     128324
L2C PREFETCH  ACCESS:          0  HIT:          0  MISS:          0
L2C WRITEBACK ACCESS:     136324  HIT:     136009  MISS:        315
L2C PREFETCH  REQUESTED:          0  ISSUED:          0  USEFUL:          0  USELESS:          0
L2C AVERAGE MISS LATENCY: 208.222 cycles
LLC TOTAL     ACCESS:     282730  HIT:      23176  MISS:     259554
LLC LOAD      ACCESS:      25759  HIT:       2528  MISS:      23231
LLC RFO       ACCESS:     128324  HIT:          4  MISS:     128320
LLC PREFETCH  ACCESS:          0  HIT:          0  MISS:          0
LLC WRITEBACK ACCESS:     128647  HIT:      20644  MISS:     108003
LLC PREFETCH  REQUESTED:          0  ISSUED:          0  USEFUL:          0  USELESS:          0
LLC AVERAGE MISS LATENCY: 99.7801 cycles
Major fault: 0 Minor fault: 3176
==============================
Perceptron RRIP Stats:
   Num Updates:          293138
   Num Primary Trains:   282
   Num Secondary Trains: 129
==============================
primary_perceptron #0: 8 0 -4 4 -2 4 4 4 4 2 2 0 2 0 0 -8 
secondary_perceptron #0: 11 -1 -5 7 -1 7 7 3 7 3 1 1 -3 -1 -1 -3 1 3 3 1 -13 


DRAM Statistics
 CHANNEL 0
 RQ ROW_BUFFER_HIT:      28567  ROW_BUFFER_MISS:     122984
 DBUS_CONGESTED:      85890
 WQ ROW_BUFFER_HIT:      30409  ROW_BUFFER_MISS:      98736  FULL:          0

 AVG_CONGESTED_CYCLE: 6

CPU 0 Branch Prediction Accuracy: 86.8535% MPKI: 19.1572 Average ROB Occupancy at Mispredict: 17.1565

Branch types
NOT_BRANCH: 854278635 85.4279%
BRANCH_DIRECT_JUMP: 10863909 1.08639%
BRANCH_INDIRECT: 1041230 0.104123%
BRANCH_CONDITIONAL: 130770005 13.077%
BRANCH_DIRECT_CALL: 1522966 0.152297%
BRANCH_INDIRECT_CALL: 0 0%
BRANCH_RETURN: 1522965 0.152297%
BRANCH_OTHER: 0 0%

