
*** ChampSim Multicore Out-of-Order Simulator ***

Warmup Instructions: 100000000
Simulation Instructions: 1000000000
Number of CPUs: 1
LLC sets: 2048
LLC ways: 16
Off-chip DRAM Size: 4096 MB Channels: 1 Width: 64-bit Data Rate: 3200 MT/s

CPU 0 runs /scratch/user/kevin.weston/dpc3-traces/603.champsimtrace.xz
CPU 0 Bimodal branch predictor
Initialize SRRIP state
Heartbeat CPU 0 instructions: 10000000 cycles: 3409066 heartbeat IPC: 2.93335 cumulative IPC: 2.93335 (Simulation time: 0 hr 0 min 17 sec) 
Heartbeat CPU 0 instructions: 20000003 cycles: 6807784 heartbeat IPC: 2.94229 cumulative IPC: 2.93781 (Simulation time: 0 hr 0 min 36 sec) 
Heartbeat CPU 0 instructions: 30000002 cycles: 10206664 heartbeat IPC: 2.94215 cumulative IPC: 2.93926 (Simulation time: 0 hr 0 min 55 sec) 
Heartbeat CPU 0 instructions: 40000002 cycles: 13618411 heartbeat IPC: 2.93105 cumulative IPC: 2.9372 (Simulation time: 0 hr 1 min 12 sec) 
Heartbeat CPU 0 instructions: 50000003 cycles: 17027550 heartbeat IPC: 2.93329 cumulative IPC: 2.93642 (Simulation time: 0 hr 1 min 29 sec) 
Heartbeat CPU 0 instructions: 60000003 cycles: 20427740 heartbeat IPC: 2.94101 cumulative IPC: 2.93718 (Simulation time: 0 hr 1 min 46 sec) 
Heartbeat CPU 0 instructions: 70000002 cycles: 23820424 heartbeat IPC: 2.94752 cumulative IPC: 2.93865 (Simulation time: 0 hr 2 min 3 sec) 
Heartbeat CPU 0 instructions: 80000000 cycles: 27213998 heartbeat IPC: 2.94675 cumulative IPC: 2.93966 (Simulation time: 0 hr 2 min 19 sec) 
Heartbeat CPU 0 instructions: 90000003 cycles: 30612827 heartbeat IPC: 2.94219 cumulative IPC: 2.93994 (Simulation time: 0 hr 2 min 36 sec) 
Heartbeat CPU 0 instructions: 100000000 cycles: 33993295 heartbeat IPC: 2.95817 cumulative IPC: 2.94176 (Simulation time: 0 hr 2 min 53 sec) 

Warmup complete CPU 0 instructions: 100000004 cycles: 33993296 (Simulation time: 0 hr 2 min 53 sec) 

Heartbeat CPU 0 instructions: 110000000 cycles: 42331886 heartbeat IPC: 1.19924 cumulative IPC: 1.19924 (Simulation time: 0 hr 3 min 5 sec) 
Heartbeat CPU 0 instructions: 120000002 cycles: 50706626 heartbeat IPC: 1.19407 cumulative IPC: 1.19665 (Simulation time: 0 hr 3 min 17 sec) 
Heartbeat CPU 0 instructions: 130000001 cycles: 59175387 heartbeat IPC: 1.18081 cumulative IPC: 1.19132 (Simulation time: 0 hr 3 min 29 sec) 
Heartbeat CPU 0 instructions: 140000002 cycles: 67808117 heartbeat IPC: 1.15838 cumulative IPC: 1.18291 (Simulation time: 0 hr 3 min 41 sec) 
Heartbeat CPU 0 instructions: 150000001 cycles: 76282802 heartbeat IPC: 1.17998 cumulative IPC: 1.18233 (Simulation time: 0 hr 3 min 53 sec) 
Heartbeat CPU 0 instructions: 160000000 cycles: 84697818 heartbeat IPC: 1.18835 cumulative IPC: 1.18333 (Simulation time: 0 hr 4 min 5 sec) 
Heartbeat CPU 0 instructions: 170000000 cycles: 93274010 heartbeat IPC: 1.16602 cumulative IPC: 1.18082 (Simulation time: 0 hr 4 min 17 sec) 
Heartbeat CPU 0 instructions: 180000000 cycles: 101849177 heartbeat IPC: 1.16616 cumulative IPC: 1.17897 (Simulation time: 0 hr 4 min 29 sec) 
Heartbeat CPU 0 instructions: 190000000 cycles: 110384950 heartbeat IPC: 1.17154 cumulative IPC: 1.17814 (Simulation time: 0 hr 4 min 41 sec) 
Heartbeat CPU 0 instructions: 200000000 cycles: 118721009 heartbeat IPC: 1.19961 cumulative IPC: 1.18025 (Simulation time: 0 hr 4 min 53 sec) 
Heartbeat CPU 0 instructions: 210000001 cycles: 127151598 heartbeat IPC: 1.18616 cumulative IPC: 1.18079 (Simulation time: 0 hr 5 min 5 sec) 
Heartbeat CPU 0 instructions: 220000000 cycles: 135639514 heartbeat IPC: 1.17815 cumulative IPC: 1.18057 (Simulation time: 0 hr 5 min 17 sec) 
Heartbeat CPU 0 instructions: 230000001 cycles: 144061322 heartbeat IPC: 1.18739 cumulative IPC: 1.18109 (Simulation time: 0 hr 5 min 29 sec) 
Heartbeat CPU 0 instructions: 240000000 cycles: 152509665 heartbeat IPC: 1.18366 cumulative IPC: 1.18127 (Simulation time: 0 hr 5 min 41 sec) 
Heartbeat CPU 0 instructions: 250000000 cycles: 160880645 heartbeat IPC: 1.1946 cumulative IPC: 1.18215 (Simulation time: 0 hr 5 min 53 sec) 
Heartbeat CPU 0 instructions: 260000001 cycles: 169288609 heartbeat IPC: 1.18935 cumulative IPC: 1.1826 (Simulation time: 0 hr 6 min 5 sec) 
Heartbeat CPU 0 instructions: 270000002 cycles: 177732823 heartbeat IPC: 1.18424 cumulative IPC: 1.18269 (Simulation time: 0 hr 6 min 17 sec) 
Heartbeat CPU 0 instructions: 280000003 cycles: 186065713 heartbeat IPC: 1.20006 cumulative IPC: 1.18365 (Simulation time: 0 hr 6 min 28 sec) 
Heartbeat CPU 0 instructions: 290000000 cycles: 194483857 heartbeat IPC: 1.18791 cumulative IPC: 1.18387 (Simulation time: 0 hr 6 min 40 sec) 
Heartbeat CPU 0 instructions: 300000002 cycles: 202919602 heartbeat IPC: 1.18543 cumulative IPC: 1.18395 (Simulation time: 0 hr 6 min 52 sec) 
Heartbeat CPU 0 instructions: 310000001 cycles: 211259139 heartbeat IPC: 1.19911 cumulative IPC: 1.18466 (Simulation time: 0 hr 7 min 4 sec) 
Heartbeat CPU 0 instructions: 320000002 cycles: 219717054 heartbeat IPC: 1.18232 cumulative IPC: 1.18455 (Simulation time: 0 hr 7 min 16 sec) 
Heartbeat CPU 0 instructions: 330000000 cycles: 228188723 heartbeat IPC: 1.1804 cumulative IPC: 1.18437 (Simulation time: 0 hr 7 min 28 sec) 
Heartbeat CPU 0 instructions: 340000000 cycles: 236678008 heartbeat IPC: 1.17796 cumulative IPC: 1.18411 (Simulation time: 0 hr 7 min 40 sec) 
Heartbeat CPU 0 instructions: 350000002 cycles: 245114825 heartbeat IPC: 1.18528 cumulative IPC: 1.18415 (Simulation time: 0 hr 7 min 52 sec) 
Heartbeat CPU 0 instructions: 360000000 cycles: 253631463 heartbeat IPC: 1.17417 cumulative IPC: 1.18377 (Simulation time: 0 hr 8 min 5 sec) 
Heartbeat CPU 0 instructions: 370000001 cycles: 261981920 heartbeat IPC: 1.19754 cumulative IPC: 1.18427 (Simulation time: 0 hr 8 min 16 sec) 
Heartbeat CPU 0 instructions: 380000000 cycles: 270531638 heartbeat IPC: 1.16963 cumulative IPC: 1.18374 (Simulation time: 0 hr 8 min 29 sec) 
Heartbeat CPU 0 instructions: 390000003 cycles: 278954139 heartbeat IPC: 1.1873 cumulative IPC: 1.18386 (Simulation time: 0 hr 8 min 40 sec) 
Heartbeat CPU 0 instructions: 400000001 cycles: 287538747 heartbeat IPC: 1.16488 cumulative IPC: 1.18322 (Simulation time: 0 hr 8 min 53 sec) 
Heartbeat CPU 0 instructions: 410000001 cycles: 296049364 heartbeat IPC: 1.175 cumulative IPC: 1.18295 (Simulation time: 0 hr 9 min 5 sec) 
Heartbeat CPU 0 instructions: 420000000 cycles: 304519672 heartbeat IPC: 1.18059 cumulative IPC: 1.18288 (Simulation time: 0 hr 9 min 16 sec) 
Heartbeat CPU 0 instructions: 430000002 cycles: 312995601 heartbeat IPC: 1.17981 cumulative IPC: 1.18279 (Simulation time: 0 hr 9 min 29 sec) 
Heartbeat CPU 0 instructions: 440000000 cycles: 321554158 heartbeat IPC: 1.16842 cumulative IPC: 1.18236 (Simulation time: 0 hr 9 min 41 sec) 
Heartbeat CPU 0 instructions: 450000003 cycles: 329936882 heartbeat IPC: 1.19293 cumulative IPC: 1.18266 (Simulation time: 0 hr 9 min 53 sec) 
Heartbeat CPU 0 instructions: 460000000 cycles: 338313268 heartbeat IPC: 1.19383 cumulative IPC: 1.18297 (Simulation time: 0 hr 10 min 5 sec) 
Heartbeat CPU 0 instructions: 470000000 cycles: 346581123 heartbeat IPC: 1.2095 cumulative IPC: 1.18367 (Simulation time: 0 hr 10 min 16 sec) 
Heartbeat CPU 0 instructions: 480000001 cycles: 354897607 heartbeat IPC: 1.20243 cumulative IPC: 1.18415 (Simulation time: 0 hr 10 min 28 sec) 
Heartbeat CPU 0 instructions: 490000000 cycles: 363167421 heartbeat IPC: 1.20922 cumulative IPC: 1.18478 (Simulation time: 0 hr 10 min 40 sec) 
Heartbeat CPU 0 instructions: 500000001 cycles: 371435574 heartbeat IPC: 1.20946 cumulative IPC: 1.18539 (Simulation time: 0 hr 10 min 52 sec) 
Heartbeat CPU 0 instructions: 510000001 cycles: 379695968 heartbeat IPC: 1.2106 cumulative IPC: 1.18599 (Simulation time: 0 hr 11 min 3 sec) 
Heartbeat CPU 0 instructions: 520000002 cycles: 387961163 heartbeat IPC: 1.20989 cumulative IPC: 1.18655 (Simulation time: 0 hr 11 min 15 sec) 
Heartbeat CPU 0 instructions: 530000003 cycles: 396232783 heartbeat IPC: 1.20895 cumulative IPC: 1.18706 (Simulation time: 0 hr 11 min 32 sec) 
Heartbeat CPU 0 instructions: 540000000 cycles: 404467405 heartbeat IPC: 1.21438 cumulative IPC: 1.18767 (Simulation time: 0 hr 11 min 48 sec) 
Heartbeat CPU 0 instructions: 550000000 cycles: 412726799 heartbeat IPC: 1.21074 cumulative IPC: 1.18817 (Simulation time: 0 hr 12 min 0 sec) 
Heartbeat CPU 0 instructions: 560000002 cycles: 420992218 heartbeat IPC: 1.20986 cumulative IPC: 1.18863 (Simulation time: 0 hr 12 min 12 sec) 
Heartbeat CPU 0 instructions: 570000001 cycles: 429255082 heartbeat IPC: 1.21023 cumulative IPC: 1.18909 (Simulation time: 0 hr 12 min 23 sec) 
Heartbeat CPU 0 instructions: 580000000 cycles: 437503828 heartbeat IPC: 1.21231 cumulative IPC: 1.18956 (Simulation time: 0 hr 12 min 35 sec) 
Heartbeat CPU 0 instructions: 590000001 cycles: 445773700 heartbeat IPC: 1.20921 cumulative IPC: 1.18995 (Simulation time: 0 hr 12 min 47 sec) 
Heartbeat CPU 0 instructions: 600000003 cycles: 454041468 heartbeat IPC: 1.20952 cumulative IPC: 1.19034 (Simulation time: 0 hr 12 min 58 sec) 
Heartbeat CPU 0 instructions: 610000000 cycles: 462297140 heartbeat IPC: 1.21129 cumulative IPC: 1.19074 (Simulation time: 0 hr 13 min 10 sec) 
Heartbeat CPU 0 instructions: 620000003 cycles: 470573835 heartbeat IPC: 1.20821 cumulative IPC: 1.19107 (Simulation time: 0 hr 13 min 22 sec) 
Heartbeat CPU 0 instructions: 630000001 cycles: 478852379 heartbeat IPC: 1.20794 cumulative IPC: 1.19139 (Simulation time: 0 hr 13 min 33 sec) 
Heartbeat CPU 0 instructions: 640000003 cycles: 487136089 heartbeat IPC: 1.20719 cumulative IPC: 1.19168 (Simulation time: 0 hr 13 min 45 sec) 
Heartbeat CPU 0 instructions: 650000003 cycles: 495409522 heartbeat IPC: 1.20869 cumulative IPC: 1.19198 (Simulation time: 0 hr 13 min 57 sec) 
Heartbeat CPU 0 instructions: 660000000 cycles: 503784307 heartbeat IPC: 1.19406 cumulative IPC: 1.19202 (Simulation time: 0 hr 14 min 9 sec) 
Heartbeat CPU 0 instructions: 670000002 cycles: 512265566 heartbeat IPC: 1.17907 cumulative IPC: 1.19179 (Simulation time: 0 hr 14 min 21 sec) 
Heartbeat CPU 0 instructions: 680000003 cycles: 520806583 heartbeat IPC: 1.17082 cumulative IPC: 1.19142 (Simulation time: 0 hr 14 min 33 sec) 
Heartbeat CPU 0 instructions: 690000003 cycles: 529282367 heartbeat IPC: 1.17983 cumulative IPC: 1.19122 (Simulation time: 0 hr 14 min 45 sec) 
Heartbeat CPU 0 instructions: 700000000 cycles: 537680329 heartbeat IPC: 1.19076 cumulative IPC: 1.19122 (Simulation time: 0 hr 14 min 57 sec) 
Heartbeat CPU 0 instructions: 710000000 cycles: 546201990 heartbeat IPC: 1.17348 cumulative IPC: 1.19092 (Simulation time: 0 hr 15 min 8 sec) 
Heartbeat CPU 0 instructions: 720000001 cycles: 554843165 heartbeat IPC: 1.15725 cumulative IPC: 1.19036 (Simulation time: 0 hr 15 min 21 sec) 
Heartbeat CPU 0 instructions: 730000002 cycles: 563376169 heartbeat IPC: 1.17192 cumulative IPC: 1.19006 (Simulation time: 0 hr 15 min 33 sec) 
Heartbeat CPU 0 instructions: 740000001 cycles: 571812105 heartbeat IPC: 1.1854 cumulative IPC: 1.18999 (Simulation time: 0 hr 15 min 45 sec) 
Heartbeat CPU 0 instructions: 750000000 cycles: 580349140 heartbeat IPC: 1.17137 cumulative IPC: 1.1897 (Simulation time: 0 hr 15 min 57 sec) 
Heartbeat CPU 0 instructions: 760000000 cycles: 588806354 heartbeat IPC: 1.18242 cumulative IPC: 1.18959 (Simulation time: 0 hr 16 min 9 sec) 
Heartbeat CPU 0 instructions: 770000000 cycles: 597165537 heartbeat IPC: 1.19629 cumulative IPC: 1.18969 (Simulation time: 0 hr 16 min 21 sec) 
Heartbeat CPU 0 instructions: 780000002 cycles: 605601730 heartbeat IPC: 1.18537 cumulative IPC: 1.18963 (Simulation time: 0 hr 16 min 32 sec) 
Heartbeat CPU 0 instructions: 790000003 cycles: 613944266 heartbeat IPC: 1.19868 cumulative IPC: 1.18976 (Simulation time: 0 hr 16 min 44 sec) 
Heartbeat CPU 0 instructions: 800000002 cycles: 622367923 heartbeat IPC: 1.18713 cumulative IPC: 1.18972 (Simulation time: 0 hr 16 min 56 sec) 
Heartbeat CPU 0 instructions: 810000002 cycles: 630784052 heartbeat IPC: 1.18819 cumulative IPC: 1.1897 (Simulation time: 0 hr 17 min 8 sec) 
Heartbeat CPU 0 instructions: 820000000 cycles: 639192920 heartbeat IPC: 1.18922 cumulative IPC: 1.18969 (Simulation time: 0 hr 17 min 20 sec) 
Heartbeat CPU 0 instructions: 830000002 cycles: 647540082 heartbeat IPC: 1.19801 cumulative IPC: 1.1898 (Simulation time: 0 hr 17 min 32 sec) 
Heartbeat CPU 0 instructions: 840000003 cycles: 655972071 heartbeat IPC: 1.18596 cumulative IPC: 1.18975 (Simulation time: 0 hr 17 min 44 sec) 
Heartbeat CPU 0 instructions: 850000001 cycles: 664303863 heartbeat IPC: 1.20022 cumulative IPC: 1.18989 (Simulation time: 0 hr 17 min 56 sec) 
Heartbeat CPU 0 instructions: 860000003 cycles: 672738775 heartbeat IPC: 1.18555 cumulative IPC: 1.18983 (Simulation time: 0 hr 18 min 8 sec) 
Heartbeat CPU 0 instructions: 870000000 cycles: 681079987 heartbeat IPC: 1.19887 cumulative IPC: 1.18995 (Simulation time: 0 hr 18 min 20 sec) 
Heartbeat CPU 0 instructions: 880000000 cycles: 689545083 heartbeat IPC: 1.18132 cumulative IPC: 1.18984 (Simulation time: 0 hr 18 min 32 sec) 
Heartbeat CPU 0 instructions: 890000003 cycles: 697891199 heartbeat IPC: 1.19816 cumulative IPC: 1.18994 (Simulation time: 0 hr 18 min 44 sec) 
Heartbeat CPU 0 instructions: 900000000 cycles: 706326166 heartbeat IPC: 1.18554 cumulative IPC: 1.18989 (Simulation time: 0 hr 18 min 56 sec) 
Heartbeat CPU 0 instructions: 910000001 cycles: 714804623 heartbeat IPC: 1.17946 cumulative IPC: 1.18976 (Simulation time: 0 hr 19 min 8 sec) 
Heartbeat CPU 0 instructions: 920000001 cycles: 723169185 heartbeat IPC: 1.19552 cumulative IPC: 1.18983 (Simulation time: 0 hr 19 min 20 sec) 
Heartbeat CPU 0 instructions: 930000000 cycles: 731521927 heartbeat IPC: 1.19721 cumulative IPC: 1.18992 (Simulation time: 0 hr 19 min 32 sec) 
Heartbeat CPU 0 instructions: 940000002 cycles: 739996021 heartbeat IPC: 1.18007 cumulative IPC: 1.1898 (Simulation time: 0 hr 19 min 44 sec) 
Heartbeat CPU 0 instructions: 950000001 cycles: 748565446 heartbeat IPC: 1.16694 cumulative IPC: 1.18952 (Simulation time: 0 hr 19 min 57 sec) 
Heartbeat CPU 0 instructions: 960000000 cycles: 757015679 heartbeat IPC: 1.1834 cumulative IPC: 1.18945 (Simulation time: 0 hr 20 min 9 sec) 
Heartbeat CPU 0 instructions: 970000002 cycles: 765491795 heartbeat IPC: 1.17979 cumulative IPC: 1.18934 (Simulation time: 0 hr 20 min 21 sec) 
Heartbeat CPU 0 instructions: 980000000 cycles: 774201076 heartbeat IPC: 1.1482 cumulative IPC: 1.18886 (Simulation time: 0 hr 20 min 33 sec) 
Heartbeat CPU 0 instructions: 990000000 cycles: 782637585 heartbeat IPC: 1.18532 cumulative IPC: 1.18882 (Simulation time: 0 hr 20 min 45 sec) 
Heartbeat CPU 0 instructions: 1000000003 cycles: 791179807 heartbeat IPC: 1.17066 cumulative IPC: 1.18861 (Simulation time: 0 hr 20 min 57 sec) 
Heartbeat CPU 0 instructions: 1010000001 cycles: 799653828 heartbeat IPC: 1.18008 cumulative IPC: 1.18852 (Simulation time: 0 hr 21 min 9 sec) 
Heartbeat CPU 0 instructions: 1020000002 cycles: 808005837 heartbeat IPC: 1.19732 cumulative IPC: 1.18861 (Simulation time: 0 hr 21 min 21 sec) 
Heartbeat CPU 0 instructions: 1030000000 cycles: 816400302 heartbeat IPC: 1.19126 cumulative IPC: 1.18864 (Simulation time: 0 hr 21 min 33 sec) 
Heartbeat CPU 0 instructions: 1040000001 cycles: 824722734 heartbeat IPC: 1.20157 cumulative IPC: 1.18878 (Simulation time: 0 hr 21 min 45 sec) 
Heartbeat CPU 0 instructions: 1050000001 cycles: 832993475 heartbeat IPC: 1.20908 cumulative IPC: 1.18899 (Simulation time: 0 hr 21 min 56 sec) 
Heartbeat CPU 0 instructions: 1060000000 cycles: 841291020 heartbeat IPC: 1.20518 cumulative IPC: 1.18915 (Simulation time: 0 hr 22 min 8 sec) 
Heartbeat CPU 0 instructions: 1070000000 cycles: 849558459 heartbeat IPC: 1.20956 cumulative IPC: 1.18936 (Simulation time: 0 hr 22 min 20 sec) 
Heartbeat CPU 0 instructions: 1080000001 cycles: 857808459 heartbeat IPC: 1.21212 cumulative IPC: 1.18959 (Simulation time: 0 hr 22 min 32 sec) 
Heartbeat CPU 0 instructions: 1090000003 cycles: 866072158 heartbeat IPC: 1.21011 cumulative IPC: 1.18979 (Simulation time: 0 hr 22 min 43 sec) 
Heartbeat CPU 0 instructions: 1100000000 cycles: 874347713 heartbeat IPC: 1.20838 cumulative IPC: 1.18997 (Simulation time: 0 hr 22 min 55 sec) 
Finished CPU 0 instructions: 1000000000 cycles: 840354424 cumulative IPC: 1.18997 (Simulation time: 0 hr 22 min 55 sec) 

ChampSim completed all CPUs

Region of Interest Statistics

CPU 0 cumulative IPC: 1.18997 instructions: 1000000000 cycles: 840354424
L1D TOTAL     ACCESS:  218435299  HIT:  218268279  MISS:     167020
L1D LOAD      ACCESS:  180607649  HIT:  180576775  MISS:      30874
L1D RFO       ACCESS:   37827650  HIT:   37691504  MISS:     136146
L1D PREFETCH  ACCESS:          0  HIT:          0  MISS:          0
L1D WRITEBACK ACCESS:          0  HIT:          0  MISS:          0
L1D PREFETCH  REQUESTED:          0  ISSUED:          0  USEFUL:          0  USELESS:          0
L1D AVERAGE MISS LATENCY: 211.652 cycles
L1I TOTAL     ACCESS:  211045955  HIT:  211045955  MISS:          0
L1I LOAD      ACCESS:  211045955  HIT:  211045955  MISS:          0
L1I RFO       ACCESS:          0  HIT:          0  MISS:          0
L1I PREFETCH  ACCESS:          0  HIT:          0  MISS:          0
L1I WRITEBACK ACCESS:          0  HIT:          0  MISS:          0
L1I PREFETCH  REQUESTED:          0  ISSUED:          0  USEFUL:          0  USELESS:          0
L1I AVERAGE MISS LATENCY: -nan cycles
L2C TOTAL     ACCESS:     303344  HIT:     148946  MISS:     154398
L2C LOAD      ACCESS:      30874  HIT:       5115  MISS:      25759
L2C RFO       ACCESS:     136146  HIT:       7822  MISS:     128324
L2C PREFETCH  ACCESS:          0  HIT:          0  MISS:          0
L2C WRITEBACK ACCESS:     136324  HIT:     136009  MISS:        315
L2C PREFETCH  REQUESTED:          0  ISSUED:          0  USEFUL:          0  USELESS:          0
L2C AVERAGE MISS LATENCY: 215.569 cycles
LLC TOTAL     ACCESS:     282730  HIT:     122125  MISS:     160605
LLC LOAD      ACCESS:      25759  HIT:         40  MISS:      25719
LLC RFO       ACCESS:     128324  HIT:          2  MISS:     128322
LLC PREFETCH  ACCESS:          0  HIT:          0  MISS:          0
LLC WRITEBACK ACCESS:     128647  HIT:     122083  MISS:       6564
LLC PREFETCH  REQUESTED:          0  ISSUED:          0  USEFUL:          0  USELESS:          0
LLC AVERAGE MISS LATENCY: 168.389 cycles
Major fault: 0 Minor fault: 3176

DRAM Statistics
 CHANNEL 0
 RQ ROW_BUFFER_HIT:      22821  ROW_BUFFER_MISS:     131220
 DBUS_CONGESTED:      87738
 WQ ROW_BUFFER_HIT:      19417  ROW_BUFFER_MISS:     108798  FULL:          0

 AVG_CONGESTED_CYCLE: 6

CPU 0 Branch Prediction Accuracy: 86.8535% MPKI: 19.1572 Average ROB Occupancy at Mispredict: 17.157

Branch types
NOT_BRANCH: 854278635 85.4279%
BRANCH_DIRECT_JUMP: 10863909 1.08639%
BRANCH_INDIRECT: 1041230 0.104123%
BRANCH_CONDITIONAL: 130770005 13.077%
BRANCH_DIRECT_CALL: 1522966 0.152297%
BRANCH_INDIRECT_CALL: 0 0%
BRANCH_RETURN: 1522965 0.152297%
BRANCH_OTHER: 0 0%

