
*** ChampSim Multicore Out-of-Order Simulator ***

Warmup Instructions: 100000000
Simulation Instructions: 1000000000
Number of CPUs: 1
LLC sets: 2048
LLC ways: 16
Off-chip DRAM Size: 4096 MB Channels: 1 Width: 64-bit Data Rate: 3200 MT/s

CPU 0 runs /scratch/user/kevin.weston/dpc3-traces/603.champsimtrace.xz
CPU 0 Bimodal branch predictor
Per-line RRPV Initialized
PRRIP State Initialized
Assign SAMPLER_SET[0]: 454  LLC: 2048
SAMPLER_SET[0]: 454
Assign SAMPLER_SET[1]: 1662  LLC: 2048
SAMPLER_SET[1]: 1662
Assign SAMPLER_SET[2]: 1921  LLC: 2048
SAMPLER_SET[2]: 1921
Assign SAMPLER_SET[3]: 1131  LLC: 2048
SAMPLER_SET[3]: 1131
Assign SAMPLER_SET[4]: 331  LLC: 2048
SAMPLER_SET[4]: 331
Assign SAMPLER_SET[5]: 1531  LLC: 2048
SAMPLER_SET[5]: 1531
Assign SAMPLER_SET[6]: 482  LLC: 2048
SAMPLER_SET[6]: 482
Assign SAMPLER_SET[7]: 1275  LLC: 2048
SAMPLER_SET[7]: 1275
Assign SAMPLER_SET[8]: 1876  LLC: 2048
SAMPLER_SET[8]: 1876
Assign SAMPLER_SET[9]: 2038  LLC: 2048
SAMPLER_SET[9]: 2038
Assign SAMPLER_SET[10]: 701  LLC: 2048
SAMPLER_SET[10]: 701
Assign SAMPLER_SET[11]: 479  LLC: 2048
SAMPLER_SET[11]: 479
Assign SAMPLER_SET[12]: 892  LLC: 2048
SAMPLER_SET[12]: 892
Assign SAMPLER_SET[13]: 1820  LLC: 2048
SAMPLER_SET[13]: 1820
Assign SAMPLER_SET[14]: 1505  LLC: 2048
SAMPLER_SET[14]: 1505
Assign SAMPLER_SET[15]: 1159  LLC: 2048
SAMPLER_SET[15]: 1159
Assign SAMPLER_SET[16]: 513  LLC: 2048
SAMPLER_SET[16]: 513
Assign SAMPLER_SET[17]: 703  LLC: 2048
SAMPLER_SET[17]: 703
Assign SAMPLER_SET[18]: 561  LLC: 2048
SAMPLER_SET[18]: 561
Assign SAMPLER_SET[19]: 990  LLC: 2048
SAMPLER_SET[19]: 990
Assign SAMPLER_SET[20]: 342  LLC: 2048
SAMPLER_SET[20]: 342
Assign SAMPLER_SET[21]: 882  LLC: 2048
SAMPLER_SET[21]: 882
Assign SAMPLER_SET[22]: 15  LLC: 2048
SAMPLER_SET[22]: 15
Assign SAMPLER_SET[23]: 71  LLC: 2048
SAMPLER_SET[23]: 71
Assign SAMPLER_SET[24]: 1127  LLC: 2048
SAMPLER_SET[24]: 1127
Assign SAMPLER_SET[25]: 1382  LLC: 2048
SAMPLER_SET[25]: 1382
Assign SAMPLER_SET[26]: 647  LLC: 2048
SAMPLER_SET[26]: 647
Assign SAMPLER_SET[27]: 857  LLC: 2048
SAMPLER_SET[27]: 857
Assign SAMPLER_SET[28]: 1450  LLC: 2048
SAMPLER_SET[28]: 1450
Assign SAMPLER_SET[29]: 1160  LLC: 2048
SAMPLER_SET[29]: 1160
Assign SAMPLER_SET[30]: 1852  LLC: 2048
SAMPLER_SET[30]: 1852
Assign SAMPLER_SET[31]: 1881  LLC: 2048
SAMPLER_SET[31]: 1881
Assign SAMPLER_SET[32]: 1770  LLC: 2048
SAMPLER_SET[32]: 1770
Assign SAMPLER_SET[33]: 1622  LLC: 2048
SAMPLER_SET[33]: 1622
Assign SAMPLER_SET[34]: 275  LLC: 2048
SAMPLER_SET[34]: 275
Assign SAMPLER_SET[35]: 635  LLC: 2048
SAMPLER_SET[35]: 635
Assign SAMPLER_SET[36]: 466  LLC: 2048
SAMPLER_SET[36]: 466
Assign SAMPLER_SET[37]: 1413  LLC: 2048
SAMPLER_SET[37]: 1413
Assign SAMPLER_SET[38]: 417  LLC: 2048
SAMPLER_SET[38]: 417
Assign SAMPLER_SET[39]: 472  LLC: 2048
SAMPLER_SET[39]: 472
Assign SAMPLER_SET[40]: 1340  LLC: 2048
SAMPLER_SET[40]: 1340
Assign SAMPLER_SET[41]: 852  LLC: 2048
SAMPLER_SET[41]: 852
Assign SAMPLER_SET[42]: 1365  LLC: 2048
SAMPLER_SET[42]: 1365
Assign SAMPLER_SET[43]: 47  LLC: 2048
SAMPLER_SET[43]: 47
Assign SAMPLER_SET[44]: 823  LLC: 2048
SAMPLER_SET[44]: 823
Assign SAMPLER_SET[45]: 686  LLC: 2048
SAMPLER_SET[45]: 686
Assign SAMPLER_SET[46]: 1637  LLC: 2048
SAMPLER_SET[46]: 1637
Assign SAMPLER_SET[47]: 1115  LLC: 2048
SAMPLER_SET[47]: 1115
Assign SAMPLER_SET[48]: 986  LLC: 2048
SAMPLER_SET[48]: 986
Assign SAMPLER_SET[49]: 258  LLC: 2048
SAMPLER_SET[49]: 258
Assign SAMPLER_SET[50]: 633  LLC: 2048
SAMPLER_SET[50]: 633
Assign SAMPLER_SET[51]: 920  LLC: 2048
SAMPLER_SET[51]: 920
Assign SAMPLER_SET[52]: 204  LLC: 2048
SAMPLER_SET[52]: 204
Assign SAMPLER_SET[53]: 227  LLC: 2048
SAMPLER_SET[53]: 227
Assign SAMPLER_SET[54]: 1818  LLC: 2048
SAMPLER_SET[54]: 1818
Assign SAMPLER_SET[55]: 886  LLC: 2048
SAMPLER_SET[55]: 886
Assign SAMPLER_SET[56]: 1422  LLC: 2048
SAMPLER_SET[56]: 1422
Assign SAMPLER_SET[57]: 607  LLC: 2048
SAMPLER_SET[57]: 607
Assign SAMPLER_SET[58]: 217  LLC: 2048
SAMPLER_SET[58]: 217
Assign SAMPLER_SET[59]: 1945  LLC: 2048
SAMPLER_SET[59]: 1945
Assign SAMPLER_SET[60]: 143  LLC: 2048
SAMPLER_SET[60]: 143
Assign SAMPLER_SET[61]: 1311  LLC: 2048
SAMPLER_SET[61]: 1311
Assign SAMPLER_SET[62]: 319  LLC: 2048
SAMPLER_SET[62]: 319
Assign SAMPLER_SET[63]: 1846  LLC: 2048
SAMPLER_SET[63]: 1846
Assign SAMPLER_SET[64]: 238  LLC: 2048
SAMPLER_SET[64]: 238
Assign SAMPLER_SET[65]: 67  LLC: 2048
SAMPLER_SET[65]: 67
Assign SAMPLER_SET[66]: 1912  LLC: 2048
SAMPLER_SET[66]: 1912
Assign SAMPLER_SET[67]: 1613  LLC: 2048
SAMPLER_SET[67]: 1613
Assign SAMPLER_SET[68]: 1293  LLC: 2048
SAMPLER_SET[68]: 1293
Assign SAMPLER_SET[69]: 1018  LLC: 2048
SAMPLER_SET[69]: 1018
Assign SAMPLER_SET[70]: 1982  LLC: 2048
SAMPLER_SET[70]: 1982
Assign SAMPLER_SET[71]: 1702  LLC: 2048
SAMPLER_SET[71]: 1702
Assign SAMPLER_SET[72]: 1498  LLC: 2048
SAMPLER_SET[72]: 1498
Assign SAMPLER_SET[73]: 228  LLC: 2048
SAMPLER_SET[73]: 228
Assign SAMPLER_SET[74]: 1414  LLC: 2048
SAMPLER_SET[74]: 1414
Assign SAMPLER_SET[75]: 1166  LLC: 2048
SAMPLER_SET[75]: 1166
Assign SAMPLER_SET[76]: 732  LLC: 2048
SAMPLER_SET[76]: 732
Assign SAMPLER_SET[77]: 297  LLC: 2048
SAMPLER_SET[77]: 297
Assign SAMPLER_SET[78]: 1133  LLC: 2048
SAMPLER_SET[78]: 1133
Assign SAMPLER_SET[79]: 846  LLC: 2048
SAMPLER_SET[79]: 846
Assign SAMPLER_SET[80]: 767  LLC: 2048
SAMPLER_SET[80]: 767
Assign SAMPLER_SET[81]: 1878  LLC: 2048
SAMPLER_SET[81]: 1878
Assign SAMPLER_SET[82]: 993  LLC: 2048
SAMPLER_SET[82]: 993
Assign SAMPLER_SET[83]: 1392  LLC: 2048
SAMPLER_SET[83]: 1392
Assign SAMPLER_SET[84]: 1568  LLC: 2048
SAMPLER_SET[84]: 1568
Assign SAMPLER_SET[85]: 1787  LLC: 2048
SAMPLER_SET[85]: 1787
Assign SAMPLER_SET[86]: 399  LLC: 2048
SAMPLER_SET[86]: 399
Assign SAMPLER_SET[87]: 1201  LLC: 2048
SAMPLER_SET[87]: 1201
Assign SAMPLER_SET[88]: 856  LLC: 2048
SAMPLER_SET[88]: 856
Assign SAMPLER_SET[89]: 773  LLC: 2048
SAMPLER_SET[89]: 773
Assign SAMPLER_SET[90]: 1680  LLC: 2048
SAMPLER_SET[90]: 1680
Assign SAMPLER_SET[91]: 1477  LLC: 2048
SAMPLER_SET[91]: 1477
Assign SAMPLER_SET[92]: 9  LLC: 2048
SAMPLER_SET[92]: 9
Assign SAMPLER_SET[93]: 1500  LLC: 2048
SAMPLER_SET[93]: 1500
Assign SAMPLER_SET[94]: 851  LLC: 2048
SAMPLER_SET[94]: 851
Assign SAMPLER_SET[95]: 973  LLC: 2048
SAMPLER_SET[95]: 973
Assign SAMPLER_SET[96]: 938  LLC: 2048
SAMPLER_SET[96]: 938
Assign SAMPLER_SET[97]: 1851  LLC: 2048
SAMPLER_SET[97]: 1851
Assign SAMPLER_SET[98]: 1608  LLC: 2048
SAMPLER_SET[98]: 1608
Assign SAMPLER_SET[99]: 1945  LLC: 2048
Assign SAMPLER_SET[99]: 1106  LLC: 2048
SAMPLER_SET[99]: 1106
Assign SAMPLER_SET[100]: 979  LLC: 2048
SAMPLER_SET[100]: 979
Assign SAMPLER_SET[101]: 338  LLC: 2048
SAMPLER_SET[101]: 338
Assign SAMPLER_SET[102]: 1693  LLC: 2048
SAMPLER_SET[102]: 1693
Assign SAMPLER_SET[103]: 6  LLC: 2048
SAMPLER_SET[103]: 6
Assign SAMPLER_SET[104]: 671  LLC: 2048
SAMPLER_SET[104]: 671
Assign SAMPLER_SET[105]: 490  LLC: 2048
SAMPLER_SET[105]: 490
Assign SAMPLER_SET[106]: 1461  LLC: 2048
SAMPLER_SET[106]: 1461
Assign SAMPLER_SET[107]: 1730  LLC: 2048
SAMPLER_SET[107]: 1730
Assign SAMPLER_SET[108]: 1030  LLC: 2048
SAMPLER_SET[108]: 1030
Assign SAMPLER_SET[109]: 19  LLC: 2048
SAMPLER_SET[109]: 19
Assign SAMPLER_SET[110]: 920  LLC: 2048
Assign SAMPLER_SET[110]: 329  LLC: 2048
SAMPLER_SET[110]: 329
Assign SAMPLER_SET[111]: 1714  LLC: 2048
SAMPLER_SET[111]: 1714
Assign SAMPLER_SET[112]: 1  LLC: 2048
SAMPLER_SET[112]: 1
Assign SAMPLER_SET[113]: 1822  LLC: 2048
SAMPLER_SET[113]: 1822
Assign SAMPLER_SET[114]: 172  LLC: 2048
SAMPLER_SET[114]: 172
Assign SAMPLER_SET[115]: 1586  LLC: 2048
SAMPLER_SET[115]: 1586
Assign SAMPLER_SET[116]: 648  LLC: 2048
SAMPLER_SET[116]: 648
Assign SAMPLER_SET[117]: 1329  LLC: 2048
SAMPLER_SET[117]: 1329
Assign SAMPLER_SET[118]: 668  LLC: 2048
SAMPLER_SET[118]: 668
Assign SAMPLER_SET[119]: 1874  LLC: 2048
SAMPLER_SET[119]: 1874
Assign SAMPLER_SET[120]: 70  LLC: 2048
SAMPLER_SET[120]: 70
Assign SAMPLER_SET[121]: 661  LLC: 2048
SAMPLER_SET[121]: 661
Assign SAMPLER_SET[122]: 1649  LLC: 2048
SAMPLER_SET[122]: 1649
Assign SAMPLER_SET[123]: 1590  LLC: 2048
SAMPLER_SET[123]: 1590
Assign SAMPLER_SET[124]: 911  LLC: 2048
SAMPLER_SET[124]: 911
Assign SAMPLER_SET[125]: 1367  LLC: 2048
SAMPLER_SET[125]: 1367
Assign SAMPLER_SET[126]: 1782  LLC: 2048
SAMPLER_SET[126]: 1782
Assign SAMPLER_SET[127]: 569  LLC: 2048
SAMPLER_SET[127]: 569
Assign SAMPLER_SET[128]: 1309  LLC: 2048
SAMPLER_SET[128]: 1309
Assign SAMPLER_SET[129]: 534  LLC: 2048
SAMPLER_SET[129]: 534
Assign SAMPLER_SET[130]: 1274  LLC: 2048
SAMPLER_SET[130]: 1274
Assign SAMPLER_SET[131]: 904  LLC: 2048
SAMPLER_SET[131]: 904
Assign SAMPLER_SET[132]: 1908  LLC: 2048
SAMPLER_SET[132]: 1908
Assign SAMPLER_SET[133]: 245  LLC: 2048
SAMPLER_SET[133]: 245
Assign SAMPLER_SET[134]: 1688  LLC: 2048
SAMPLER_SET[134]: 1688
Assign SAMPLER_SET[135]: 1660  LLC: 2048
SAMPLER_SET[135]: 1660
Assign SAMPLER_SET[136]: 1303  LLC: 2048
SAMPLER_SET[136]: 1303
Assign SAMPLER_SET[137]: 1628  LLC: 2048
SAMPLER_SET[137]: 1628
Assign SAMPLER_SET[138]: 1857  LLC: 2048
SAMPLER_SET[138]: 1857
Assign SAMPLER_SET[139]: 187  LLC: 2048
SAMPLER_SET[139]: 187
Assign SAMPLER_SET[140]: 1389  LLC: 2048
SAMPLER_SET[140]: 1389
Assign SAMPLER_SET[141]: 881  LLC: 2048
SAMPLER_SET[141]: 881
Assign SAMPLER_SET[142]: 1166  LLC: 2048
Assign SAMPLER_SET[142]: 1039  LLC: 2048
SAMPLER_SET[142]: 1039
Assign SAMPLER_SET[143]: 1136  LLC: 2048
SAMPLER_SET[143]: 1136
Assign SAMPLER_SET[144]: 601  LLC: 2048
SAMPLER_SET[144]: 601
Assign SAMPLER_SET[145]: 967  LLC: 2048
SAMPLER_SET[145]: 967
Assign SAMPLER_SET[146]: 769  LLC: 2048
SAMPLER_SET[146]: 769
Assign SAMPLER_SET[147]: 283  LLC: 2048
SAMPLER_SET[147]: 283
Assign SAMPLER_SET[148]: 559  LLC: 2048
SAMPLER_SET[148]: 559
Assign SAMPLER_SET[149]: 1075  LLC: 2048
SAMPLER_SET[149]: 1075
Assign SAMPLER_SET[150]: 829  LLC: 2048
SAMPLER_SET[150]: 829
Assign SAMPLER_SET[151]: 1681  LLC: 2048
SAMPLER_SET[151]: 1681
Assign SAMPLER_SET[152]: 1728  LLC: 2048
SAMPLER_SET[152]: 1728
Assign SAMPLER_SET[153]: 541  LLC: 2048
SAMPLER_SET[153]: 541
Assign SAMPLER_SET[154]: 421  LLC: 2048
SAMPLER_SET[154]: 421
Assign SAMPLER_SET[155]: 1037  LLC: 2048
SAMPLER_SET[155]: 1037
Assign SAMPLER_SET[156]: 13  LLC: 2048
SAMPLER_SET[156]: 13
Assign SAMPLER_SET[157]: 1707  LLC: 2048
SAMPLER_SET[157]: 1707
Assign SAMPLER_SET[158]: 1075  LLC: 2048
Assign SAMPLER_SET[158]: 1933  LLC: 2048
SAMPLER_SET[158]: 1933
Assign SAMPLER_SET[159]: 1406  LLC: 2048
SAMPLER_SET[159]: 1406
Assign SAMPLER_SET[160]: 94  LLC: 2048
SAMPLER_SET[160]: 94
Assign SAMPLER_SET[161]: 1423  LLC: 2048
SAMPLER_SET[161]: 1423
Assign SAMPLER_SET[162]: 1854  LLC: 2048
SAMPLER_SET[162]: 1854
Assign SAMPLER_SET[163]: 230  LLC: 2048
SAMPLER_SET[163]: 230
Assign SAMPLER_SET[164]: 104  LLC: 2048
SAMPLER_SET[164]: 104
Assign SAMPLER_SET[165]: 1652  LLC: 2048
SAMPLER_SET[165]: 1652
Assign SAMPLER_SET[166]: 1446  LLC: 2048
SAMPLER_SET[166]: 1446
Assign SAMPLER_SET[167]: 1338  LLC: 2048
SAMPLER_SET[167]: 1338
Assign SAMPLER_SET[168]: 177  LLC: 2048
SAMPLER_SET[168]: 177
Assign SAMPLER_SET[169]: 195  LLC: 2048
SAMPLER_SET[169]: 195
Assign SAMPLER_SET[170]: 1171  LLC: 2048
SAMPLER_SET[170]: 1171
Assign SAMPLER_SET[171]: 1297  LLC: 2048
SAMPLER_SET[171]: 1297
Assign SAMPLER_SET[172]: 1704  LLC: 2048
SAMPLER_SET[172]: 1704
Assign SAMPLER_SET[173]: 100  LLC: 2048
SAMPLER_SET[173]: 100
Assign SAMPLER_SET[174]: 711  LLC: 2048
SAMPLER_SET[174]: 711
Assign SAMPLER_SET[175]: 1243  LLC: 2048
SAMPLER_SET[175]: 1243
Assign SAMPLER_SET[176]: 1738  LLC: 2048
SAMPLER_SET[176]: 1738
Assign SAMPLER_SET[177]: 1504  LLC: 2048
SAMPLER_SET[177]: 1504
Assign SAMPLER_SET[178]: 96  LLC: 2048
SAMPLER_SET[178]: 96
Assign SAMPLER_SET[179]: 1249  LLC: 2048
SAMPLER_SET[179]: 1249
Assign SAMPLER_SET[180]: 1267  LLC: 2048
SAMPLER_SET[180]: 1267
Assign SAMPLER_SET[181]: 1727  LLC: 2048
SAMPLER_SET[181]: 1727
Assign SAMPLER_SET[182]: 1545  LLC: 2048
SAMPLER_SET[182]: 1545
Assign SAMPLER_SET[183]: 1792  LLC: 2048
SAMPLER_SET[183]: 1792
Assign SAMPLER_SET[184]: 1383  LLC: 2048
SAMPLER_SET[184]: 1383
Assign SAMPLER_SET[185]: 1954  LLC: 2048
SAMPLER_SET[185]: 1954
Assign SAMPLER_SET[186]: 739  LLC: 2048
SAMPLER_SET[186]: 739
Assign SAMPLER_SET[187]: 1061  LLC: 2048
SAMPLER_SET[187]: 1061
Assign SAMPLER_SET[188]: 672  LLC: 2048
SAMPLER_SET[188]: 672
Assign SAMPLER_SET[189]: 1057  LLC: 2048
SAMPLER_SET[189]: 1057
Assign SAMPLER_SET[190]: 1329  LLC: 2048
Assign SAMPLER_SET[190]: 1415  LLC: 2048
SAMPLER_SET[190]: 1415
Assign SAMPLER_SET[191]: 981  LLC: 2048
SAMPLER_SET[191]: 981
Assign SAMPLER_SET[192]: 98  LLC: 2048
SAMPLER_SET[192]: 98
Assign SAMPLER_SET[193]: 453  LLC: 2048
SAMPLER_SET[193]: 453
Assign SAMPLER_SET[194]: 1448  LLC: 2048
SAMPLER_SET[194]: 1448
Assign SAMPLER_SET[195]: 79  LLC: 2048
SAMPLER_SET[195]: 79
Assign SAMPLER_SET[196]: 126  LLC: 2048
SAMPLER_SET[196]: 126
Assign SAMPLER_SET[197]: 1582  LLC: 2048
SAMPLER_SET[197]: 1582
Assign SAMPLER_SET[198]: 1289  LLC: 2048
SAMPLER_SET[198]: 1289
Assign SAMPLER_SET[199]: 875  LLC: 2048
SAMPLER_SET[199]: 875
Assign SAMPLER_SET[200]: 404  LLC: 2048
SAMPLER_SET[200]: 404
Assign SAMPLER_SET[201]: 415  LLC: 2048
SAMPLER_SET[201]: 415
Assign SAMPLER_SET[202]: 1712  LLC: 2048
SAMPLER_SET[202]: 1712
Assign SAMPLER_SET[203]: 1389  LLC: 2048
Assign SAMPLER_SET[203]: 169  LLC: 2048
SAMPLER_SET[203]: 169
Assign SAMPLER_SET[204]: 158  LLC: 2048
SAMPLER_SET[204]: 158
Assign SAMPLER_SET[205]: 90  LLC: 2048
SAMPLER_SET[205]: 90
Assign SAMPLER_SET[206]: 1291  LLC: 2048
SAMPLER_SET[206]: 1291
Assign SAMPLER_SET[207]: 838  LLC: 2048
SAMPLER_SET[207]: 838
Assign SAMPLER_SET[208]: 1904  LLC: 2048
SAMPLER_SET[208]: 1904
Assign SAMPLER_SET[209]: 640  LLC: 2048
SAMPLER_SET[209]: 640
Assign SAMPLER_SET[210]: 1462  LLC: 2048
SAMPLER_SET[210]: 1462
Assign SAMPLER_SET[211]: 1487  LLC: 2048
SAMPLER_SET[211]: 1487
Assign SAMPLER_SET[212]: 1863  LLC: 2048
SAMPLER_SET[212]: 1863
Assign SAMPLER_SET[213]: 1036  LLC: 2048
SAMPLER_SET[213]: 1036
Assign SAMPLER_SET[214]: 1702  LLC: 2048
Assign SAMPLER_SET[214]: 933  LLC: 2048
SAMPLER_SET[214]: 933
Assign SAMPLER_SET[215]: 554  LLC: 2048
SAMPLER_SET[215]: 554
Assign SAMPLER_SET[216]: 1496  LLC: 2048
SAMPLER_SET[216]: 1496
Assign SAMPLER_SET[217]: 1708  LLC: 2048
SAMPLER_SET[217]: 1708
Assign SAMPLER_SET[218]: 1275  LLC: 2048
Assign SAMPLER_SET[218]: 416  LLC: 2048
SAMPLER_SET[218]: 416
Assign SAMPLER_SET[219]: 491  LLC: 2048
SAMPLER_SET[219]: 491
Assign SAMPLER_SET[220]: 183  LLC: 2048
SAMPLER_SET[220]: 183
Assign SAMPLER_SET[221]: 1657  LLC: 2048
SAMPLER_SET[221]: 1657
Assign SAMPLER_SET[222]: 1060  LLC: 2048
SAMPLER_SET[222]: 1060
Assign SAMPLER_SET[223]: 626  LLC: 2048
SAMPLER_SET[223]: 626
Assign SAMPLER_SET[224]: 1315  LLC: 2048
SAMPLER_SET[224]: 1315
Assign SAMPLER_SET[225]: 1682  LLC: 2048
SAMPLER_SET[225]: 1682
Assign SAMPLER_SET[226]: 1352  LLC: 2048
SAMPLER_SET[226]: 1352
Assign SAMPLER_SET[227]: 1152  LLC: 2048
SAMPLER_SET[227]: 1152
Assign SAMPLER_SET[228]: 965  LLC: 2048
SAMPLER_SET[228]: 965
Assign SAMPLER_SET[229]: 1190  LLC: 2048
SAMPLER_SET[229]: 1190
Assign SAMPLER_SET[230]: 1191  LLC: 2048
SAMPLER_SET[230]: 1191
Assign SAMPLER_SET[231]: 645  LLC: 2048
SAMPLER_SET[231]: 645
Assign SAMPLER_SET[232]: 695  LLC: 2048
SAMPLER_SET[232]: 695
Assign SAMPLER_SET[233]: 1495  LLC: 2048
SAMPLER_SET[233]: 1495
Assign SAMPLER_SET[234]: 1932  LLC: 2048
SAMPLER_SET[234]: 1932
Assign SAMPLER_SET[235]: 656  LLC: 2048
SAMPLER_SET[235]: 656
Assign SAMPLER_SET[236]: 1508  LLC: 2048
SAMPLER_SET[236]: 1508
Assign SAMPLER_SET[237]: 939  LLC: 2048
SAMPLER_SET[237]: 939
Assign SAMPLER_SET[238]: 355  LLC: 2048
SAMPLER_SET[238]: 355
Assign SAMPLER_SET[239]: 1092  LLC: 2048
SAMPLER_SET[239]: 1092
Assign SAMPLER_SET[240]: 850  LLC: 2048
SAMPLER_SET[240]: 850
Assign SAMPLER_SET[241]: 102  LLC: 2048
SAMPLER_SET[241]: 102
Assign SAMPLER_SET[242]: 1763  LLC: 2048
SAMPLER_SET[242]: 1763
Assign SAMPLER_SET[243]: 668  LLC: 2048
Assign SAMPLER_SET[243]: 51  LLC: 2048
SAMPLER_SET[243]: 51
Assign SAMPLER_SET[244]: 1317  LLC: 2048
SAMPLER_SET[244]: 1317
Assign SAMPLER_SET[245]: 2041  LLC: 2048
SAMPLER_SET[245]: 2041
Assign SAMPLER_SET[246]: 1374  LLC: 2048
SAMPLER_SET[246]: 1374
Assign SAMPLER_SET[247]: 682  LLC: 2048
SAMPLER_SET[247]: 682
Assign SAMPLER_SET[248]: 1466  LLC: 2048
SAMPLER_SET[248]: 1466
Assign SAMPLER_SET[249]: 1139  LLC: 2048
SAMPLER_SET[249]: 1139
Assign SAMPLER_SET[250]: 1632  LLC: 2048
SAMPLER_SET[250]: 1632
Assign SAMPLER_SET[251]: 1117  LLC: 2048
SAMPLER_SET[251]: 1117
Assign SAMPLER_SET[252]: 1611  LLC: 2048
SAMPLER_SET[252]: 1611
Assign SAMPLER_SET[253]: 1905  LLC: 2048
SAMPLER_SET[253]: 1905
Assign SAMPLER_SET[254]: 1662  LLC: 2048
Assign SAMPLER_SET[254]: 446  LLC: 2048
SAMPLER_SET[254]: 446
Assign SAMPLER_SET[255]: 1705  LLC: 2048
SAMPLER_SET[255]: 1705
Heartbeat CPU 0 instructions: 10000000 cycles: 3409066 heartbeat IPC: 2.93335 cumulative IPC: 2.93335 (Simulation time: 0 hr 0 min 17 sec) 
Heartbeat CPU 0 instructions: 20000003 cycles: 6807784 heartbeat IPC: 2.94229 cumulative IPC: 2.93781 (Simulation time: 0 hr 0 min 35 sec) 
Heartbeat CPU 0 instructions: 30000002 cycles: 10206664 heartbeat IPC: 2.94215 cumulative IPC: 2.93926 (Simulation time: 0 hr 0 min 54 sec) 
Heartbeat CPU 0 instructions: 40000002 cycles: 13618411 heartbeat IPC: 2.93105 cumulative IPC: 2.9372 (Simulation time: 0 hr 1 min 11 sec) 
Heartbeat CPU 0 instructions: 50000003 cycles: 17027550 heartbeat IPC: 2.93329 cumulative IPC: 2.93642 (Simulation time: 0 hr 1 min 28 sec) 
Heartbeat CPU 0 instructions: 60000003 cycles: 20427740 heartbeat IPC: 2.94101 cumulative IPC: 2.93718 (Simulation time: 0 hr 1 min 45 sec) 
Heartbeat CPU 0 instructions: 70000002 cycles: 23820424 heartbeat IPC: 2.94752 cumulative IPC: 2.93865 (Simulation time: 0 hr 2 min 2 sec) 
Heartbeat CPU 0 instructions: 80000000 cycles: 27213998 heartbeat IPC: 2.94675 cumulative IPC: 2.93966 (Simulation time: 0 hr 2 min 19 sec) 
Heartbeat CPU 0 instructions: 90000003 cycles: 30612827 heartbeat IPC: 2.94219 cumulative IPC: 2.93994 (Simulation time: 0 hr 2 min 36 sec) 
Heartbeat CPU 0 instructions: 100000000 cycles: 33993295 heartbeat IPC: 2.95817 cumulative IPC: 2.94176 (Simulation time: 0 hr 2 min 52 sec) 

Warmup complete CPU 0 instructions: 100000004 cycles: 33993296 (Simulation time: 0 hr 2 min 52 sec) 

Heartbeat CPU 0 instructions: 110000000 cycles: 42332189 heartbeat IPC: 1.1992 cumulative IPC: 1.1992 (Simulation time: 0 hr 3 min 4 sec) 
Heartbeat CPU 0 instructions: 120000002 cycles: 50706122 heartbeat IPC: 1.19418 cumulative IPC: 1.19669 (Simulation time: 0 hr 3 min 16 sec) 
Heartbeat CPU 0 instructions: 130000001 cycles: 59173592 heartbeat IPC: 1.18099 cumulative IPC: 1.19141 (Simulation time: 0 hr 3 min 28 sec) 
Heartbeat CPU 0 instructions: 140000002 cycles: 67804009 heartbeat IPC: 1.15869 cumulative IPC: 1.18306 (Simulation time: 0 hr 3 min 40 sec) 
Heartbeat CPU 0 instructions: 150000001 cycles: 76267052 heartbeat IPC: 1.18161 cumulative IPC: 1.18277 (Simulation time: 0 hr 3 min 53 sec) 
Heartbeat CPU 0 instructions: 160000000 cycles: 84665406 heartbeat IPC: 1.19071 cumulative IPC: 1.18408 (Simulation time: 0 hr 4 min 5 sec) 
Heartbeat CPU 0 instructions: 170000000 cycles: 93241805 heartbeat IPC: 1.16599 cumulative IPC: 1.18146 (Simulation time: 0 hr 4 min 17 sec) 
Heartbeat CPU 0 instructions: 180000000 cycles: 101814551 heartbeat IPC: 1.16649 cumulative IPC: 1.17957 (Simulation time: 0 hr 4 min 29 sec) 
Heartbeat CPU 0 instructions: 190000000 cycles: 110350150 heartbeat IPC: 1.17156 cumulative IPC: 1.17868 (Simulation time: 0 hr 4 min 41 sec) 
Heartbeat CPU 0 instructions: 200000000 cycles: 118688188 heartbeat IPC: 1.19932 cumulative IPC: 1.18071 (Simulation time: 0 hr 4 min 53 sec) 
Heartbeat CPU 0 instructions: 210000001 cycles: 127122935 heartbeat IPC: 1.18557 cumulative IPC: 1.18115 (Simulation time: 0 hr 5 min 5 sec) 
Heartbeat CPU 0 instructions: 220000000 cycles: 135617277 heartbeat IPC: 1.17725 cumulative IPC: 1.18082 (Simulation time: 0 hr 5 min 17 sec) 
Heartbeat CPU 0 instructions: 230000001 cycles: 144030830 heartbeat IPC: 1.18856 cumulative IPC: 1.18142 (Simulation time: 0 hr 5 min 29 sec) 
Heartbeat CPU 0 instructions: 240000000 cycles: 152466566 heartbeat IPC: 1.18543 cumulative IPC: 1.1817 (Simulation time: 0 hr 5 min 41 sec) 
Heartbeat CPU 0 instructions: 250000000 cycles: 160828447 heartbeat IPC: 1.1959 cumulative IPC: 1.18264 (Simulation time: 0 hr 5 min 53 sec) 
Heartbeat CPU 0 instructions: 260000001 cycles: 169239384 heartbeat IPC: 1.18893 cumulative IPC: 1.18303 (Simulation time: 0 hr 6 min 5 sec) 
Heartbeat CPU 0 instructions: 270000002 cycles: 177686322 heartbeat IPC: 1.18386 cumulative IPC: 1.18308 (Simulation time: 0 hr 6 min 17 sec) 
Heartbeat CPU 0 instructions: 280000003 cycles: 186021256 heartbeat IPC: 1.19977 cumulative IPC: 1.18399 (Simulation time: 0 hr 6 min 29 sec) 
Heartbeat CPU 0 instructions: 290000000 cycles: 194439147 heartbeat IPC: 1.18795 cumulative IPC: 1.1842 (Simulation time: 0 hr 6 min 41 sec) 
Heartbeat CPU 0 instructions: 300000002 cycles: 202880292 heartbeat IPC: 1.18467 cumulative IPC: 1.18422 (Simulation time: 0 hr 6 min 54 sec) 
Heartbeat CPU 0 instructions: 310000001 cycles: 211219745 heartbeat IPC: 1.19912 cumulative IPC: 1.18492 (Simulation time: 0 hr 7 min 6 sec) 
Heartbeat CPU 0 instructions: 320000002 cycles: 219677850 heartbeat IPC: 1.1823 cumulative IPC: 1.18481 (Simulation time: 0 hr 7 min 18 sec) 
Heartbeat CPU 0 instructions: 330000000 cycles: 228144055 heartbeat IPC: 1.18117 cumulative IPC: 1.18465 (Simulation time: 0 hr 7 min 30 sec) 
Heartbeat CPU 0 instructions: 340000000 cycles: 236630594 heartbeat IPC: 1.17834 cumulative IPC: 1.18438 (Simulation time: 0 hr 7 min 42 sec) 
Heartbeat CPU 0 instructions: 350000002 cycles: 245068849 heartbeat IPC: 1.18508 cumulative IPC: 1.18441 (Simulation time: 0 hr 7 min 54 sec) 
Heartbeat CPU 0 instructions: 360000000 cycles: 253585013 heartbeat IPC: 1.17424 cumulative IPC: 1.18402 (Simulation time: 0 hr 8 min 6 sec) 
Heartbeat CPU 0 instructions: 370000001 cycles: 261923485 heartbeat IPC: 1.19926 cumulative IPC: 1.18457 (Simulation time: 0 hr 8 min 18 sec) 
Heartbeat CPU 0 instructions: 380000000 cycles: 270461587 heartbeat IPC: 1.17122 cumulative IPC: 1.18409 (Simulation time: 0 hr 8 min 31 sec) 
Heartbeat CPU 0 instructions: 390000003 cycles: 278884940 heartbeat IPC: 1.18718 cumulative IPC: 1.1842 (Simulation time: 0 hr 8 min 43 sec) 
Heartbeat CPU 0 instructions: 400000001 cycles: 287471132 heartbeat IPC: 1.16466 cumulative IPC: 1.18354 (Simulation time: 0 hr 8 min 55 sec) 
Heartbeat CPU 0 instructions: 410000001 cycles: 295980382 heartbeat IPC: 1.17519 cumulative IPC: 1.18326 (Simulation time: 0 hr 9 min 7 sec) 
Heartbeat CPU 0 instructions: 420000000 cycles: 304448108 heartbeat IPC: 1.18095 cumulative IPC: 1.18319 (Simulation time: 0 hr 9 min 19 sec) 
Heartbeat CPU 0 instructions: 430000002 cycles: 312927361 heartbeat IPC: 1.17935 cumulative IPC: 1.18308 (Simulation time: 0 hr 9 min 31 sec) 
Heartbeat CPU 0 instructions: 440000000 cycles: 321486313 heartbeat IPC: 1.16837 cumulative IPC: 1.18264 (Simulation time: 0 hr 9 min 43 sec) 
Heartbeat CPU 0 instructions: 450000003 cycles: 329870165 heartbeat IPC: 1.19277 cumulative IPC: 1.18292 (Simulation time: 0 hr 9 min 55 sec) 
Heartbeat CPU 0 instructions: 460000000 cycles: 338241473 heartbeat IPC: 1.19456 cumulative IPC: 1.18324 (Simulation time: 0 hr 10 min 7 sec) 
Heartbeat CPU 0 instructions: 470000000 cycles: 346508132 heartbeat IPC: 1.20968 cumulative IPC: 1.18394 (Simulation time: 0 hr 10 min 19 sec) 
Heartbeat CPU 0 instructions: 480000001 cycles: 354816795 heartbeat IPC: 1.20356 cumulative IPC: 1.18445 (Simulation time: 0 hr 10 min 31 sec) 
Heartbeat CPU 0 instructions: 490000000 cycles: 363084695 heartbeat IPC: 1.2095 cumulative IPC: 1.18508 (Simulation time: 0 hr 10 min 43 sec) 
Heartbeat CPU 0 instructions: 500000001 cycles: 371345246 heartbeat IPC: 1.21057 cumulative IPC: 1.18571 (Simulation time: 0 hr 10 min 55 sec) 
Heartbeat CPU 0 instructions: 510000001 cycles: 379605220 heartbeat IPC: 1.21066 cumulative IPC: 1.1863 (Simulation time: 0 hr 11 min 6 sec) 
Heartbeat CPU 0 instructions: 520000002 cycles: 387869054 heartbeat IPC: 1.21009 cumulative IPC: 1.18686 (Simulation time: 0 hr 11 min 18 sec) 
Heartbeat CPU 0 instructions: 530000003 cycles: 396128158 heartbeat IPC: 1.21079 cumulative IPC: 1.1874 (Simulation time: 0 hr 11 min 35 sec) 
Heartbeat CPU 0 instructions: 540000000 cycles: 404324599 heartbeat IPC: 1.22004 cumulative IPC: 1.18813 (Simulation time: 0 hr 11 min 51 sec) 
Heartbeat CPU 0 instructions: 550000000 cycles: 412583993 heartbeat IPC: 1.21074 cumulative IPC: 1.18862 (Simulation time: 0 hr 12 min 3 sec) 
Heartbeat CPU 0 instructions: 560000002 cycles: 420850229 heartbeat IPC: 1.20974 cumulative IPC: 1.18907 (Simulation time: 0 hr 12 min 14 sec) 
Heartbeat CPU 0 instructions: 570000001 cycles: 429112996 heartbeat IPC: 1.21025 cumulative IPC: 1.18951 (Simulation time: 0 hr 12 min 26 sec) 
Heartbeat CPU 0 instructions: 580000000 cycles: 437360021 heartbeat IPC: 1.21256 cumulative IPC: 1.18998 (Simulation time: 0 hr 12 min 38 sec) 
Heartbeat CPU 0 instructions: 590000001 cycles: 445629993 heartbeat IPC: 1.20919 cumulative IPC: 1.19037 (Simulation time: 0 hr 12 min 50 sec) 
Heartbeat CPU 0 instructions: 600000003 cycles: 453898167 heartbeat IPC: 1.20946 cumulative IPC: 1.19075 (Simulation time: 0 hr 13 min 2 sec) 
Heartbeat CPU 0 instructions: 610000000 cycles: 462154621 heartbeat IPC: 1.21117 cumulative IPC: 1.19114 (Simulation time: 0 hr 13 min 13 sec) 
Heartbeat CPU 0 instructions: 620000003 cycles: 470431320 heartbeat IPC: 1.20821 cumulative IPC: 1.19146 (Simulation time: 0 hr 13 min 25 sec) 
Heartbeat CPU 0 instructions: 630000001 cycles: 478706348 heartbeat IPC: 1.20845 cumulative IPC: 1.19178 (Simulation time: 0 hr 13 min 37 sec) 
Heartbeat CPU 0 instructions: 640000003 cycles: 486987917 heartbeat IPC: 1.2075 cumulative IPC: 1.19207 (Simulation time: 0 hr 13 min 49 sec) 
Heartbeat CPU 0 instructions: 650000003 cycles: 495252925 heartbeat IPC: 1.20992 cumulative IPC: 1.19239 (Simulation time: 0 hr 14 min 0 sec) 
Heartbeat CPU 0 instructions: 660000000 cycles: 503620372 heartbeat IPC: 1.19511 cumulative IPC: 1.19244 (Simulation time: 0 hr 14 min 12 sec) 
Heartbeat CPU 0 instructions: 670000002 cycles: 512101202 heartbeat IPC: 1.17913 cumulative IPC: 1.1922 (Simulation time: 0 hr 14 min 24 sec) 
Heartbeat CPU 0 instructions: 680000003 cycles: 520642928 heartbeat IPC: 1.17072 cumulative IPC: 1.19182 (Simulation time: 0 hr 14 min 37 sec) 
Heartbeat CPU 0 instructions: 690000003 cycles: 529120228 heartbeat IPC: 1.17962 cumulative IPC: 1.19161 (Simulation time: 0 hr 14 min 49 sec) 
Heartbeat CPU 0 instructions: 700000000 cycles: 537519905 heartbeat IPC: 1.19052 cumulative IPC: 1.1916 (Simulation time: 0 hr 15 min 1 sec) 
Heartbeat CPU 0 instructions: 710000000 cycles: 546042153 heartbeat IPC: 1.1734 cumulative IPC: 1.19129 (Simulation time: 0 hr 15 min 13 sec) 
Heartbeat CPU 0 instructions: 720000001 cycles: 554683942 heartbeat IPC: 1.15717 cumulative IPC: 1.19073 (Simulation time: 0 hr 15 min 25 sec) 
Heartbeat CPU 0 instructions: 730000002 cycles: 563213665 heartbeat IPC: 1.17237 cumulative IPC: 1.19043 (Simulation time: 0 hr 15 min 37 sec) 
Heartbeat CPU 0 instructions: 740000001 cycles: 571649993 heartbeat IPC: 1.18535 cumulative IPC: 1.19035 (Simulation time: 0 hr 15 min 49 sec) 
Heartbeat CPU 0 instructions: 750000000 cycles: 580168229 heartbeat IPC: 1.17395 cumulative IPC: 1.19009 (Simulation time: 0 hr 16 min 1 sec) 
Heartbeat CPU 0 instructions: 760000000 cycles: 588610514 heartbeat IPC: 1.18451 cumulative IPC: 1.19001 (Simulation time: 0 hr 16 min 13 sec) 
Heartbeat CPU 0 instructions: 770000000 cycles: 596963058 heartbeat IPC: 1.19724 cumulative IPC: 1.19012 (Simulation time: 0 hr 16 min 25 sec) 
Heartbeat CPU 0 instructions: 780000002 cycles: 605398386 heartbeat IPC: 1.18549 cumulative IPC: 1.19005 (Simulation time: 0 hr 16 min 37 sec) 
Heartbeat CPU 0 instructions: 790000003 cycles: 613740616 heartbeat IPC: 1.19872 cumulative IPC: 1.19017 (Simulation time: 0 hr 16 min 49 sec) 
Heartbeat CPU 0 instructions: 800000002 cycles: 622167115 heartbeat IPC: 1.18673 cumulative IPC: 1.19012 (Simulation time: 0 hr 17 min 1 sec) 
Heartbeat CPU 0 instructions: 810000002 cycles: 630585407 heartbeat IPC: 1.18789 cumulative IPC: 1.19009 (Simulation time: 0 hr 17 min 13 sec) 
Heartbeat CPU 0 instructions: 820000000 cycles: 638994374 heartbeat IPC: 1.18921 cumulative IPC: 1.19008 (Simulation time: 0 hr 17 min 25 sec) 
Heartbeat CPU 0 instructions: 830000002 cycles: 647341503 heartbeat IPC: 1.19802 cumulative IPC: 1.19019 (Simulation time: 0 hr 17 min 37 sec) 
Heartbeat CPU 0 instructions: 840000003 cycles: 655773352 heartbeat IPC: 1.18598 cumulative IPC: 1.19013 (Simulation time: 0 hr 17 min 50 sec) 
Heartbeat CPU 0 instructions: 850000001 cycles: 664109108 heartbeat IPC: 1.19965 cumulative IPC: 1.19026 (Simulation time: 0 hr 18 min 2 sec) 
Heartbeat CPU 0 instructions: 860000003 cycles: 672543405 heartbeat IPC: 1.18564 cumulative IPC: 1.1902 (Simulation time: 0 hr 18 min 14 sec) 
Heartbeat CPU 0 instructions: 870000000 cycles: 680886844 heartbeat IPC: 1.19855 cumulative IPC: 1.1903 (Simulation time: 0 hr 18 min 26 sec) 
Heartbeat CPU 0 instructions: 880000000 cycles: 689350428 heartbeat IPC: 1.18153 cumulative IPC: 1.19019 (Simulation time: 0 hr 18 min 38 sec) 
Heartbeat CPU 0 instructions: 890000003 cycles: 697697026 heartbeat IPC: 1.19809 cumulative IPC: 1.19029 (Simulation time: 0 hr 18 min 50 sec) 
Heartbeat CPU 0 instructions: 900000000 cycles: 706132418 heartbeat IPC: 1.18548 cumulative IPC: 1.19023 (Simulation time: 0 hr 19 min 2 sec) 
Heartbeat CPU 0 instructions: 910000001 cycles: 714610610 heartbeat IPC: 1.1795 cumulative IPC: 1.1901 (Simulation time: 0 hr 19 min 14 sec) 
Heartbeat CPU 0 instructions: 920000001 cycles: 722975236 heartbeat IPC: 1.19551 cumulative IPC: 1.19016 (Simulation time: 0 hr 19 min 26 sec) 
Heartbeat CPU 0 instructions: 930000000 cycles: 731327276 heartbeat IPC: 1.19731 cumulative IPC: 1.19025 (Simulation time: 0 hr 19 min 38 sec) 
Heartbeat CPU 0 instructions: 940000002 cycles: 739801451 heartbeat IPC: 1.18006 cumulative IPC: 1.19013 (Simulation time: 0 hr 19 min 51 sec) 
Heartbeat CPU 0 instructions: 950000001 cycles: 748356648 heartbeat IPC: 1.16888 cumulative IPC: 1.18987 (Simulation time: 0 hr 20 min 3 sec) 
Heartbeat CPU 0 instructions: 960000000 cycles: 756797984 heartbeat IPC: 1.18465 cumulative IPC: 1.18981 (Simulation time: 0 hr 20 min 15 sec) 
Heartbeat CPU 0 instructions: 970000002 cycles: 765263829 heartbeat IPC: 1.18122 cumulative IPC: 1.18971 (Simulation time: 0 hr 20 min 27 sec) 
Heartbeat CPU 0 instructions: 980000000 cycles: 773956457 heartbeat IPC: 1.1504 cumulative IPC: 1.18925 (Simulation time: 0 hr 20 min 39 sec) 
Heartbeat CPU 0 instructions: 990000000 cycles: 782375047 heartbeat IPC: 1.18785 cumulative IPC: 1.18923 (Simulation time: 0 hr 20 min 51 sec) 
Heartbeat CPU 0 instructions: 1000000003 cycles: 790904212 heartbeat IPC: 1.17245 cumulative IPC: 1.18904 (Simulation time: 0 hr 21 min 4 sec) 
Heartbeat CPU 0 instructions: 1010000001 cycles: 799358626 heartbeat IPC: 1.18281 cumulative IPC: 1.18897 (Simulation time: 0 hr 21 min 16 sec) 
Heartbeat CPU 0 instructions: 1020000002 cycles: 807700717 heartbeat IPC: 1.19874 cumulative IPC: 1.18908 (Simulation time: 0 hr 21 min 28 sec) 
Heartbeat CPU 0 instructions: 1030000000 cycles: 816093796 heartbeat IPC: 1.19146 cumulative IPC: 1.18911 (Simulation time: 0 hr 21 min 40 sec) 
Heartbeat CPU 0 instructions: 1040000001 cycles: 824416747 heartbeat IPC: 1.2015 cumulative IPC: 1.18924 (Simulation time: 0 hr 21 min 52 sec) 
Heartbeat CPU 0 instructions: 1050000001 cycles: 832687997 heartbeat IPC: 1.20901 cumulative IPC: 1.18944 (Simulation time: 0 hr 22 min 4 sec) 
Heartbeat CPU 0 instructions: 1060000000 cycles: 840986044 heartbeat IPC: 1.2051 cumulative IPC: 1.1896 (Simulation time: 0 hr 22 min 15 sec) 
Heartbeat CPU 0 instructions: 1070000000 cycles: 849253892 heartbeat IPC: 1.2095 cumulative IPC: 1.1898 (Simulation time: 0 hr 22 min 27 sec) 
Heartbeat CPU 0 instructions: 1080000001 cycles: 857504902 heartbeat IPC: 1.21197 cumulative IPC: 1.19003 (Simulation time: 0 hr 22 min 39 sec) 
Heartbeat CPU 0 instructions: 1090000003 cycles: 865769001 heartbeat IPC: 1.21005 cumulative IPC: 1.19022 (Simulation time: 0 hr 22 min 51 sec) 
Heartbeat CPU 0 instructions: 1100000000 cycles: 874044860 heartbeat IPC: 1.20833 cumulative IPC: 1.1904 (Simulation time: 0 hr 23 min 3 sec) 
Finished CPU 0 instructions: 1000000000 cycles: 840051571 cumulative IPC: 1.1904 (Simulation time: 0 hr 23 min 3 sec) 

ChampSim completed all CPUs

Region of Interest Statistics

CPU 0 cumulative IPC: 1.1904 instructions: 1000000000 cycles: 840051571
L1D TOTAL     ACCESS:  218435086  HIT:  218268066  MISS:     167020
L1D LOAD      ACCESS:  180607616  HIT:  180576741  MISS:      30875
L1D RFO       ACCESS:   37827470  HIT:   37691325  MISS:     136145
L1D PREFETCH  ACCESS:          0  HIT:          0  MISS:          0
L1D WRITEBACK ACCESS:          0  HIT:          0  MISS:          0
L1D PREFETCH  REQUESTED:          0  ISSUED:          0  USEFUL:          0  USELESS:          0
L1D AVERAGE MISS LATENCY: 204.976 cycles
L1I TOTAL     ACCESS:  211043076  HIT:  211043076  MISS:          0
L1I LOAD      ACCESS:  211043076  HIT:  211043076  MISS:          0
L1I RFO       ACCESS:          0  HIT:          0  MISS:          0
L1I PREFETCH  ACCESS:          0  HIT:          0  MISS:          0
L1I WRITEBACK ACCESS:          0  HIT:          0  MISS:          0
L1I PREFETCH  REQUESTED:          0  ISSUED:          0  USEFUL:          0  USELESS:          0
L1I AVERAGE MISS LATENCY: -nan cycles
L2C TOTAL     ACCESS:     303344  HIT:     148951  MISS:     154393
L2C LOAD      ACCESS:      30875  HIT:       5119  MISS:      25756
L2C RFO       ACCESS:     136145  HIT:       7822  MISS:     128323
L2C PREFETCH  ACCESS:          0  HIT:          0  MISS:          0
L2C WRITEBACK ACCESS:     136324  HIT:     136010  MISS:        314
L2C PREFETCH  REQUESTED:          0  ISSUED:          0  USEFUL:          0  USELESS:          0
L2C AVERAGE MISS LATENCY: 208.355 cycles
LLC TOTAL     ACCESS:     282621  HIT:      33846  MISS:     248775
LLC LOAD      ACCESS:      25756  HIT:       1142  MISS:      24614
LLC RFO       ACCESS:     128323  HIT:          2  MISS:     128321
LLC PREFETCH  ACCESS:          0  HIT:          0  MISS:          0
LLC WRITEBACK ACCESS:     128542  HIT:      32702  MISS:      95840
LLC PREFETCH  REQUESTED:          0  ISSUED:          0  USEFUL:          0  USELESS:          0
LLC AVERAGE MISS LATENCY: 104.233 cycles
Major fault: 0 Minor fault: 3176
==============================
Perceptron RRIP Stats:
   Num Updates:          34964
   Num Primary Trains:   48
   Num Secondary Trains: 29
==============================
primary_perceptron #0: 2 2 4 -4 0 2 0 2 6 -2 0 2 0 0 2 -10 
secondary_perceptron #0: 3 5 3 -3 -1 5 -3 3 3 -1 3 1 -1 -1 3 1 -1 1 1 1 -9 


DRAM Statistics
 CHANNEL 0
 RQ ROW_BUFFER_HIT:      30983  ROW_BUFFER_MISS:     121952
 DBUS_CONGESTED:      83599
 WQ ROW_BUFFER_HIT:      27423  ROW_BUFFER_MISS:      98952  FULL:          0

 AVG_CONGESTED_CYCLE: 6

CPU 0 Branch Prediction Accuracy: 86.8535% MPKI: 19.1572 Average ROB Occupancy at Mispredict: 17.1557

Branch types
NOT_BRANCH: 854278635 85.4279%
BRANCH_DIRECT_JUMP: 10863909 1.08639%
BRANCH_INDIRECT: 1041230 0.104123%
BRANCH_CONDITIONAL: 130770005 13.077%
BRANCH_DIRECT_CALL: 1522966 0.152297%
BRANCH_INDIRECT_CALL: 0 0%
BRANCH_RETURN: 1522965 0.152297%
BRANCH_OTHER: 0 0%

