
*** ChampSim Multicore Out-of-Order Simulator ***

Warmup Instructions: 100000000
Simulation Instructions: 1000000000
Number of CPUs: 1
LLC sets: 2048
LLC ways: 16
Off-chip DRAM Size: 4096 MB Channels: 1 Width: 64-bit Data Rate: 3200 MT/s

CPU 0 runs /scratch/user/kevin.weston/dpc3-traces/603.champsimtrace.xz
CPU 0 Bimodal branch predictor
Initialize SHIP state
Assign rand_sets[0]: 454  LLC: 2048
rand_sets[0]: 454
Assign rand_sets[1]: 1662  LLC: 2048
rand_sets[1]: 1662
Assign rand_sets[2]: 1921  LLC: 2048
rand_sets[2]: 1921
Assign rand_sets[3]: 1131  LLC: 2048
rand_sets[3]: 1131
Assign rand_sets[4]: 331  LLC: 2048
rand_sets[4]: 331
Assign rand_sets[5]: 1531  LLC: 2048
rand_sets[5]: 1531
Assign rand_sets[6]: 482  LLC: 2048
rand_sets[6]: 482
Assign rand_sets[7]: 1275  LLC: 2048
rand_sets[7]: 1275
Assign rand_sets[8]: 1876  LLC: 2048
rand_sets[8]: 1876
Assign rand_sets[9]: 2038  LLC: 2048
rand_sets[9]: 2038
Assign rand_sets[10]: 701  LLC: 2048
rand_sets[10]: 701
Assign rand_sets[11]: 479  LLC: 2048
rand_sets[11]: 479
Assign rand_sets[12]: 892  LLC: 2048
rand_sets[12]: 892
Assign rand_sets[13]: 1820  LLC: 2048
rand_sets[13]: 1820
Assign rand_sets[14]: 1505  LLC: 2048
rand_sets[14]: 1505
Assign rand_sets[15]: 1159  LLC: 2048
rand_sets[15]: 1159
Assign rand_sets[16]: 513  LLC: 2048
rand_sets[16]: 513
Assign rand_sets[17]: 703  LLC: 2048
rand_sets[17]: 703
Assign rand_sets[18]: 561  LLC: 2048
rand_sets[18]: 561
Assign rand_sets[19]: 990  LLC: 2048
rand_sets[19]: 990
Assign rand_sets[20]: 342  LLC: 2048
rand_sets[20]: 342
Assign rand_sets[21]: 882  LLC: 2048
rand_sets[21]: 882
Assign rand_sets[22]: 15  LLC: 2048
rand_sets[22]: 15
Assign rand_sets[23]: 71  LLC: 2048
rand_sets[23]: 71
Assign rand_sets[24]: 1127  LLC: 2048
rand_sets[24]: 1127
Assign rand_sets[25]: 1382  LLC: 2048
rand_sets[25]: 1382
Assign rand_sets[26]: 647  LLC: 2048
rand_sets[26]: 647
Assign rand_sets[27]: 857  LLC: 2048
rand_sets[27]: 857
Assign rand_sets[28]: 1450  LLC: 2048
rand_sets[28]: 1450
Assign rand_sets[29]: 1160  LLC: 2048
rand_sets[29]: 1160
Assign rand_sets[30]: 1852  LLC: 2048
rand_sets[30]: 1852
Assign rand_sets[31]: 1881  LLC: 2048
rand_sets[31]: 1881
Assign rand_sets[32]: 1770  LLC: 2048
rand_sets[32]: 1770
Assign rand_sets[33]: 1622  LLC: 2048
rand_sets[33]: 1622
Assign rand_sets[34]: 275  LLC: 2048
rand_sets[34]: 275
Assign rand_sets[35]: 635  LLC: 2048
rand_sets[35]: 635
Assign rand_sets[36]: 466  LLC: 2048
rand_sets[36]: 466
Assign rand_sets[37]: 1413  LLC: 2048
rand_sets[37]: 1413
Assign rand_sets[38]: 417  LLC: 2048
rand_sets[38]: 417
Assign rand_sets[39]: 472  LLC: 2048
rand_sets[39]: 472
Assign rand_sets[40]: 1340  LLC: 2048
rand_sets[40]: 1340
Assign rand_sets[41]: 852  LLC: 2048
rand_sets[41]: 852
Assign rand_sets[42]: 1365  LLC: 2048
rand_sets[42]: 1365
Assign rand_sets[43]: 47  LLC: 2048
rand_sets[43]: 47
Assign rand_sets[44]: 823  LLC: 2048
rand_sets[44]: 823
Assign rand_sets[45]: 686  LLC: 2048
rand_sets[45]: 686
Assign rand_sets[46]: 1637  LLC: 2048
rand_sets[46]: 1637
Assign rand_sets[47]: 1115  LLC: 2048
rand_sets[47]: 1115
Assign rand_sets[48]: 986  LLC: 2048
rand_sets[48]: 986
Assign rand_sets[49]: 258  LLC: 2048
rand_sets[49]: 258
Assign rand_sets[50]: 633  LLC: 2048
rand_sets[50]: 633
Assign rand_sets[51]: 920  LLC: 2048
rand_sets[51]: 920
Assign rand_sets[52]: 204  LLC: 2048
rand_sets[52]: 204
Assign rand_sets[53]: 227  LLC: 2048
rand_sets[53]: 227
Assign rand_sets[54]: 1818  LLC: 2048
rand_sets[54]: 1818
Assign rand_sets[55]: 886  LLC: 2048
rand_sets[55]: 886
Assign rand_sets[56]: 1422  LLC: 2048
rand_sets[56]: 1422
Assign rand_sets[57]: 607  LLC: 2048
rand_sets[57]: 607
Assign rand_sets[58]: 217  LLC: 2048
rand_sets[58]: 217
Assign rand_sets[59]: 1945  LLC: 2048
rand_sets[59]: 1945
Assign rand_sets[60]: 143  LLC: 2048
rand_sets[60]: 143
Assign rand_sets[61]: 1311  LLC: 2048
rand_sets[61]: 1311
Assign rand_sets[62]: 319  LLC: 2048
rand_sets[62]: 319
Assign rand_sets[63]: 1846  LLC: 2048
rand_sets[63]: 1846
Assign rand_sets[64]: 238  LLC: 2048
rand_sets[64]: 238
Assign rand_sets[65]: 67  LLC: 2048
rand_sets[65]: 67
Assign rand_sets[66]: 1912  LLC: 2048
rand_sets[66]: 1912
Assign rand_sets[67]: 1613  LLC: 2048
rand_sets[67]: 1613
Assign rand_sets[68]: 1293  LLC: 2048
rand_sets[68]: 1293
Assign rand_sets[69]: 1018  LLC: 2048
rand_sets[69]: 1018
Assign rand_sets[70]: 1982  LLC: 2048
rand_sets[70]: 1982
Assign rand_sets[71]: 1702  LLC: 2048
rand_sets[71]: 1702
Assign rand_sets[72]: 1498  LLC: 2048
rand_sets[72]: 1498
Assign rand_sets[73]: 228  LLC: 2048
rand_sets[73]: 228
Assign rand_sets[74]: 1414  LLC: 2048
rand_sets[74]: 1414
Assign rand_sets[75]: 1166  LLC: 2048
rand_sets[75]: 1166
Assign rand_sets[76]: 732  LLC: 2048
rand_sets[76]: 732
Assign rand_sets[77]: 297  LLC: 2048
rand_sets[77]: 297
Assign rand_sets[78]: 1133  LLC: 2048
rand_sets[78]: 1133
Assign rand_sets[79]: 846  LLC: 2048
rand_sets[79]: 846
Assign rand_sets[80]: 767  LLC: 2048
rand_sets[80]: 767
Assign rand_sets[81]: 1878  LLC: 2048
rand_sets[81]: 1878
Assign rand_sets[82]: 993  LLC: 2048
rand_sets[82]: 993
Assign rand_sets[83]: 1392  LLC: 2048
rand_sets[83]: 1392
Assign rand_sets[84]: 1568  LLC: 2048
rand_sets[84]: 1568
Assign rand_sets[85]: 1787  LLC: 2048
rand_sets[85]: 1787
Assign rand_sets[86]: 399  LLC: 2048
rand_sets[86]: 399
Assign rand_sets[87]: 1201  LLC: 2048
rand_sets[87]: 1201
Assign rand_sets[88]: 856  LLC: 2048
rand_sets[88]: 856
Assign rand_sets[89]: 773  LLC: 2048
rand_sets[89]: 773
Assign rand_sets[90]: 1680  LLC: 2048
rand_sets[90]: 1680
Assign rand_sets[91]: 1477  LLC: 2048
rand_sets[91]: 1477
Assign rand_sets[92]: 9  LLC: 2048
rand_sets[92]: 9
Assign rand_sets[93]: 1500  LLC: 2048
rand_sets[93]: 1500
Assign rand_sets[94]: 851  LLC: 2048
rand_sets[94]: 851
Assign rand_sets[95]: 973  LLC: 2048
rand_sets[95]: 973
Assign rand_sets[96]: 938  LLC: 2048
rand_sets[96]: 938
Assign rand_sets[97]: 1851  LLC: 2048
rand_sets[97]: 1851
Assign rand_sets[98]: 1608  LLC: 2048
rand_sets[98]: 1608
Assign rand_sets[99]: 1945  LLC: 2048
Assign rand_sets[99]: 1106  LLC: 2048
rand_sets[99]: 1106
Assign rand_sets[100]: 979  LLC: 2048
rand_sets[100]: 979
Assign rand_sets[101]: 338  LLC: 2048
rand_sets[101]: 338
Assign rand_sets[102]: 1693  LLC: 2048
rand_sets[102]: 1693
Assign rand_sets[103]: 6  LLC: 2048
rand_sets[103]: 6
Assign rand_sets[104]: 671  LLC: 2048
rand_sets[104]: 671
Assign rand_sets[105]: 490  LLC: 2048
rand_sets[105]: 490
Assign rand_sets[106]: 1461  LLC: 2048
rand_sets[106]: 1461
Assign rand_sets[107]: 1730  LLC: 2048
rand_sets[107]: 1730
Assign rand_sets[108]: 1030  LLC: 2048
rand_sets[108]: 1030
Assign rand_sets[109]: 19  LLC: 2048
rand_sets[109]: 19
Assign rand_sets[110]: 920  LLC: 2048
Assign rand_sets[110]: 329  LLC: 2048
rand_sets[110]: 329
Assign rand_sets[111]: 1714  LLC: 2048
rand_sets[111]: 1714
Assign rand_sets[112]: 1  LLC: 2048
rand_sets[112]: 1
Assign rand_sets[113]: 1822  LLC: 2048
rand_sets[113]: 1822
Assign rand_sets[114]: 172  LLC: 2048
rand_sets[114]: 172
Assign rand_sets[115]: 1586  LLC: 2048
rand_sets[115]: 1586
Assign rand_sets[116]: 648  LLC: 2048
rand_sets[116]: 648
Assign rand_sets[117]: 1329  LLC: 2048
rand_sets[117]: 1329
Assign rand_sets[118]: 668  LLC: 2048
rand_sets[118]: 668
Assign rand_sets[119]: 1874  LLC: 2048
rand_sets[119]: 1874
Assign rand_sets[120]: 70  LLC: 2048
rand_sets[120]: 70
Assign rand_sets[121]: 661  LLC: 2048
rand_sets[121]: 661
Assign rand_sets[122]: 1649  LLC: 2048
rand_sets[122]: 1649
Assign rand_sets[123]: 1590  LLC: 2048
rand_sets[123]: 1590
Assign rand_sets[124]: 911  LLC: 2048
rand_sets[124]: 911
Assign rand_sets[125]: 1367  LLC: 2048
rand_sets[125]: 1367
Assign rand_sets[126]: 1782  LLC: 2048
rand_sets[126]: 1782
Assign rand_sets[127]: 569  LLC: 2048
rand_sets[127]: 569
Heartbeat CPU 0 instructions: 10000000 cycles: 3409066 heartbeat IPC: 2.93335 cumulative IPC: 2.93335 (Simulation time: 0 hr 0 min 17 sec) 
Heartbeat CPU 0 instructions: 20000003 cycles: 6807784 heartbeat IPC: 2.94229 cumulative IPC: 2.93781 (Simulation time: 0 hr 0 min 35 sec) 
Heartbeat CPU 0 instructions: 30000002 cycles: 10206664 heartbeat IPC: 2.94215 cumulative IPC: 2.93926 (Simulation time: 0 hr 0 min 54 sec) 
Heartbeat CPU 0 instructions: 40000002 cycles: 13618411 heartbeat IPC: 2.93105 cumulative IPC: 2.9372 (Simulation time: 0 hr 1 min 11 sec) 
Heartbeat CPU 0 instructions: 50000003 cycles: 17027550 heartbeat IPC: 2.93329 cumulative IPC: 2.93642 (Simulation time: 0 hr 1 min 28 sec) 
Heartbeat CPU 0 instructions: 60000003 cycles: 20427740 heartbeat IPC: 2.94101 cumulative IPC: 2.93718 (Simulation time: 0 hr 1 min 44 sec) 
Heartbeat CPU 0 instructions: 70000002 cycles: 23820424 heartbeat IPC: 2.94752 cumulative IPC: 2.93865 (Simulation time: 0 hr 2 min 1 sec) 
Heartbeat CPU 0 instructions: 80000000 cycles: 27213998 heartbeat IPC: 2.94675 cumulative IPC: 2.93966 (Simulation time: 0 hr 2 min 17 sec) 
Heartbeat CPU 0 instructions: 90000003 cycles: 30612827 heartbeat IPC: 2.94219 cumulative IPC: 2.93994 (Simulation time: 0 hr 2 min 34 sec) 
Heartbeat CPU 0 instructions: 100000000 cycles: 33993295 heartbeat IPC: 2.95817 cumulative IPC: 2.94176 (Simulation time: 0 hr 2 min 50 sec) 

Warmup complete CPU 0 instructions: 100000004 cycles: 33993296 (Simulation time: 0 hr 2 min 50 sec) 

Heartbeat CPU 0 instructions: 110000000 cycles: 42330956 heartbeat IPC: 1.19938 cumulative IPC: 1.19938 (Simulation time: 0 hr 3 min 2 sec) 
Heartbeat CPU 0 instructions: 120000002 cycles: 50704467 heartbeat IPC: 1.19424 cumulative IPC: 1.1968 (Simulation time: 0 hr 3 min 14 sec) 
Heartbeat CPU 0 instructions: 130000001 cycles: 59170404 heartbeat IPC: 1.1812 cumulative IPC: 1.19156 (Simulation time: 0 hr 3 min 26 sec) 
Heartbeat CPU 0 instructions: 140000002 cycles: 67801286 heartbeat IPC: 1.15863 cumulative IPC: 1.18315 (Simulation time: 0 hr 3 min 38 sec) 
Heartbeat CPU 0 instructions: 150000001 cycles: 76273040 heartbeat IPC: 1.18039 cumulative IPC: 1.1826 (Simulation time: 0 hr 3 min 50 sec) 
Heartbeat CPU 0 instructions: 160000000 cycles: 84684057 heartbeat IPC: 1.18892 cumulative IPC: 1.18365 (Simulation time: 0 hr 4 min 2 sec) 
Heartbeat CPU 0 instructions: 170000000 cycles: 93259210 heartbeat IPC: 1.16616 cumulative IPC: 1.18112 (Simulation time: 0 hr 4 min 14 sec) 
Heartbeat CPU 0 instructions: 180000000 cycles: 101829957 heartbeat IPC: 1.16676 cumulative IPC: 1.1793 (Simulation time: 0 hr 4 min 26 sec) 
Heartbeat CPU 0 instructions: 190000000 cycles: 110364059 heartbeat IPC: 1.17177 cumulative IPC: 1.17846 (Simulation time: 0 hr 4 min 38 sec) 
Heartbeat CPU 0 instructions: 200000000 cycles: 118702428 heartbeat IPC: 1.19928 cumulative IPC: 1.18051 (Simulation time: 0 hr 4 min 49 sec) 
Heartbeat CPU 0 instructions: 210000001 cycles: 127133425 heartbeat IPC: 1.1861 cumulative IPC: 1.18102 (Simulation time: 0 hr 5 min 1 sec) 
Heartbeat CPU 0 instructions: 220000000 cycles: 135625971 heartbeat IPC: 1.1775 cumulative IPC: 1.18072 (Simulation time: 0 hr 5 min 14 sec) 
Heartbeat CPU 0 instructions: 230000001 cycles: 144051049 heartbeat IPC: 1.18693 cumulative IPC: 1.1812 (Simulation time: 0 hr 5 min 26 sec) 
Heartbeat CPU 0 instructions: 240000000 cycles: 152503835 heartbeat IPC: 1.18304 cumulative IPC: 1.18133 (Simulation time: 0 hr 5 min 38 sec) 
Heartbeat CPU 0 instructions: 250000000 cycles: 160878151 heartbeat IPC: 1.19413 cumulative IPC: 1.18217 (Simulation time: 0 hr 5 min 49 sec) 
Heartbeat CPU 0 instructions: 260000001 cycles: 169290393 heartbeat IPC: 1.18874 cumulative IPC: 1.18258 (Simulation time: 0 hr 6 min 1 sec) 
Heartbeat CPU 0 instructions: 270000002 cycles: 177737225 heartbeat IPC: 1.18388 cumulative IPC: 1.18266 (Simulation time: 0 hr 6 min 13 sec) 
Heartbeat CPU 0 instructions: 280000003 cycles: 186071654 heartbeat IPC: 1.19984 cumulative IPC: 1.1836 (Simulation time: 0 hr 6 min 25 sec) 
Heartbeat CPU 0 instructions: 290000000 cycles: 194488577 heartbeat IPC: 1.18808 cumulative IPC: 1.18384 (Simulation time: 0 hr 6 min 37 sec) 
Heartbeat CPU 0 instructions: 300000002 cycles: 202920537 heartbeat IPC: 1.18596 cumulative IPC: 1.18394 (Simulation time: 0 hr 6 min 49 sec) 
Heartbeat CPU 0 instructions: 310000001 cycles: 211259850 heartbeat IPC: 1.19914 cumulative IPC: 1.18466 (Simulation time: 0 hr 7 min 1 sec) 
Heartbeat CPU 0 instructions: 320000002 cycles: 219713756 heartbeat IPC: 1.18289 cumulative IPC: 1.18458 (Simulation time: 0 hr 7 min 13 sec) 
Heartbeat CPU 0 instructions: 330000000 cycles: 228180192 heartbeat IPC: 1.18113 cumulative IPC: 1.18443 (Simulation time: 0 hr 7 min 25 sec) 
Heartbeat CPU 0 instructions: 340000000 cycles: 236669317 heartbeat IPC: 1.17798 cumulative IPC: 1.18416 (Simulation time: 0 hr 7 min 37 sec) 
Heartbeat CPU 0 instructions: 350000002 cycles: 245105259 heartbeat IPC: 1.1854 cumulative IPC: 1.18421 (Simulation time: 0 hr 7 min 50 sec) 
Heartbeat CPU 0 instructions: 360000000 cycles: 253621208 heartbeat IPC: 1.17427 cumulative IPC: 1.18382 (Simulation time: 0 hr 8 min 2 sec) 
Heartbeat CPU 0 instructions: 370000001 cycles: 261971704 heartbeat IPC: 1.19753 cumulative IPC: 1.18432 (Simulation time: 0 hr 8 min 14 sec) 
Heartbeat CPU 0 instructions: 380000000 cycles: 270521654 heartbeat IPC: 1.1696 cumulative IPC: 1.18379 (Simulation time: 0 hr 8 min 26 sec) 
Heartbeat CPU 0 instructions: 390000003 cycles: 278942854 heartbeat IPC: 1.18748 cumulative IPC: 1.18392 (Simulation time: 0 hr 8 min 38 sec) 
Heartbeat CPU 0 instructions: 400000001 cycles: 287529068 heartbeat IPC: 1.16466 cumulative IPC: 1.18326 (Simulation time: 0 hr 8 min 51 sec) 
Heartbeat CPU 0 instructions: 410000001 cycles: 296040955 heartbeat IPC: 1.17483 cumulative IPC: 1.18299 (Simulation time: 0 hr 9 min 3 sec) 
Heartbeat CPU 0 instructions: 420000000 cycles: 304508930 heartbeat IPC: 1.18092 cumulative IPC: 1.18293 (Simulation time: 0 hr 9 min 15 sec) 
Heartbeat CPU 0 instructions: 430000002 cycles: 312986800 heartbeat IPC: 1.17954 cumulative IPC: 1.18282 (Simulation time: 0 hr 9 min 27 sec) 
Heartbeat CPU 0 instructions: 440000000 cycles: 321546428 heartbeat IPC: 1.16827 cumulative IPC: 1.18239 (Simulation time: 0 hr 9 min 39 sec) 
Heartbeat CPU 0 instructions: 450000003 cycles: 329928116 heartbeat IPC: 1.19308 cumulative IPC: 1.18269 (Simulation time: 0 hr 9 min 51 sec) 
Heartbeat CPU 0 instructions: 460000000 cycles: 338303327 heartbeat IPC: 1.194 cumulative IPC: 1.183 (Simulation time: 0 hr 10 min 3 sec) 
Heartbeat CPU 0 instructions: 470000000 cycles: 346571894 heartbeat IPC: 1.2094 cumulative IPC: 1.1837 (Simulation time: 0 hr 10 min 15 sec) 
Heartbeat CPU 0 instructions: 480000001 cycles: 354891374 heartbeat IPC: 1.202 cumulative IPC: 1.18418 (Simulation time: 0 hr 10 min 26 sec) 
Heartbeat CPU 0 instructions: 490000000 cycles: 363160996 heartbeat IPC: 1.20924 cumulative IPC: 1.18481 (Simulation time: 0 hr 10 min 38 sec) 
Heartbeat CPU 0 instructions: 500000001 cycles: 371429387 heartbeat IPC: 1.20943 cumulative IPC: 1.18541 (Simulation time: 0 hr 10 min 50 sec) 
Heartbeat CPU 0 instructions: 510000001 cycles: 379689953 heartbeat IPC: 1.21057 cumulative IPC: 1.18601 (Simulation time: 0 hr 11 min 2 sec) 
Heartbeat CPU 0 instructions: 520000002 cycles: 387955300 heartbeat IPC: 1.20987 cumulative IPC: 1.18657 (Simulation time: 0 hr 11 min 13 sec) 
Heartbeat CPU 0 instructions: 530000003 cycles: 396229614 heartbeat IPC: 1.20856 cumulative IPC: 1.18707 (Simulation time: 0 hr 11 min 31 sec) 
Heartbeat CPU 0 instructions: 540000000 cycles: 404455780 heartbeat IPC: 1.21563 cumulative IPC: 1.1877 (Simulation time: 0 hr 11 min 46 sec) 
Heartbeat CPU 0 instructions: 550000000 cycles: 412714576 heartbeat IPC: 1.21083 cumulative IPC: 1.18821 (Simulation time: 0 hr 11 min 58 sec) 
Heartbeat CPU 0 instructions: 560000002 cycles: 420980916 heartbeat IPC: 1.20973 cumulative IPC: 1.18867 (Simulation time: 0 hr 12 min 10 sec) 
Heartbeat CPU 0 instructions: 570000001 cycles: 429243480 heartbeat IPC: 1.21028 cumulative IPC: 1.18912 (Simulation time: 0 hr 12 min 21 sec) 
Heartbeat CPU 0 instructions: 580000000 cycles: 437491132 heartbeat IPC: 1.21247 cumulative IPC: 1.1896 (Simulation time: 0 hr 12 min 33 sec) 
Heartbeat CPU 0 instructions: 590000001 cycles: 445761004 heartbeat IPC: 1.20921 cumulative IPC: 1.18999 (Simulation time: 0 hr 12 min 45 sec) 
Heartbeat CPU 0 instructions: 600000003 cycles: 454028578 heartbeat IPC: 1.20954 cumulative IPC: 1.19038 (Simulation time: 0 hr 12 min 56 sec) 
Heartbeat CPU 0 instructions: 610000000 cycles: 462284057 heartbeat IPC: 1.21132 cumulative IPC: 1.19078 (Simulation time: 0 hr 13 min 8 sec) 
Heartbeat CPU 0 instructions: 620000003 cycles: 470560565 heartbeat IPC: 1.20824 cumulative IPC: 1.19111 (Simulation time: 0 hr 13 min 20 sec) 
Heartbeat CPU 0 instructions: 630000001 cycles: 478839097 heartbeat IPC: 1.20794 cumulative IPC: 1.19142 (Simulation time: 0 hr 13 min 31 sec) 
Heartbeat CPU 0 instructions: 640000003 cycles: 487122299 heartbeat IPC: 1.20726 cumulative IPC: 1.19171 (Simulation time: 0 hr 13 min 43 sec) 
Heartbeat CPU 0 instructions: 650000003 cycles: 495394604 heartbeat IPC: 1.20885 cumulative IPC: 1.19202 (Simulation time: 0 hr 13 min 55 sec) 
Heartbeat CPU 0 instructions: 660000000 cycles: 503768586 heartbeat IPC: 1.19417 cumulative IPC: 1.19206 (Simulation time: 0 hr 14 min 7 sec) 
Heartbeat CPU 0 instructions: 670000002 cycles: 512250858 heartbeat IPC: 1.17893 cumulative IPC: 1.19183 (Simulation time: 0 hr 14 min 19 sec) 
Heartbeat CPU 0 instructions: 680000003 cycles: 520790779 heartbeat IPC: 1.17097 cumulative IPC: 1.19146 (Simulation time: 0 hr 14 min 31 sec) 
Heartbeat CPU 0 instructions: 690000003 cycles: 529267772 heartbeat IPC: 1.17966 cumulative IPC: 1.19126 (Simulation time: 0 hr 14 min 43 sec) 
Heartbeat CPU 0 instructions: 700000000 cycles: 537667600 heartbeat IPC: 1.1905 cumulative IPC: 1.19125 (Simulation time: 0 hr 14 min 55 sec) 
Heartbeat CPU 0 instructions: 710000000 cycles: 546189858 heartbeat IPC: 1.1734 cumulative IPC: 1.19095 (Simulation time: 0 hr 15 min 7 sec) 
Heartbeat CPU 0 instructions: 720000001 cycles: 554832234 heartbeat IPC: 1.15709 cumulative IPC: 1.19039 (Simulation time: 0 hr 15 min 19 sec) 
Heartbeat CPU 0 instructions: 730000002 cycles: 563364358 heartbeat IPC: 1.17204 cumulative IPC: 1.19009 (Simulation time: 0 hr 15 min 31 sec) 
Heartbeat CPU 0 instructions: 740000001 cycles: 571800678 heartbeat IPC: 1.18535 cumulative IPC: 1.19002 (Simulation time: 0 hr 15 min 43 sec) 
Heartbeat CPU 0 instructions: 750000000 cycles: 580338068 heartbeat IPC: 1.17132 cumulative IPC: 1.18972 (Simulation time: 0 hr 15 min 56 sec) 
Heartbeat CPU 0 instructions: 760000000 cycles: 588796805 heartbeat IPC: 1.18221 cumulative IPC: 1.18961 (Simulation time: 0 hr 16 min 8 sec) 
Heartbeat CPU 0 instructions: 770000000 cycles: 597155266 heartbeat IPC: 1.19639 cumulative IPC: 1.18971 (Simulation time: 0 hr 16 min 20 sec) 
Heartbeat CPU 0 instructions: 780000002 cycles: 605590967 heartbeat IPC: 1.18544 cumulative IPC: 1.18965 (Simulation time: 0 hr 16 min 32 sec) 
Heartbeat CPU 0 instructions: 790000003 cycles: 613932718 heartbeat IPC: 1.19879 cumulative IPC: 1.18978 (Simulation time: 0 hr 16 min 44 sec) 
Heartbeat CPU 0 instructions: 800000002 cycles: 622359501 heartbeat IPC: 1.18669 cumulative IPC: 1.18974 (Simulation time: 0 hr 16 min 56 sec) 
Heartbeat CPU 0 instructions: 810000002 cycles: 630776469 heartbeat IPC: 1.18808 cumulative IPC: 1.18971 (Simulation time: 0 hr 17 min 8 sec) 
Heartbeat CPU 0 instructions: 820000000 cycles: 639185564 heartbeat IPC: 1.18919 cumulative IPC: 1.1897 (Simulation time: 0 hr 17 min 20 sec) 
Heartbeat CPU 0 instructions: 830000002 cycles: 647532957 heartbeat IPC: 1.19798 cumulative IPC: 1.18982 (Simulation time: 0 hr 17 min 32 sec) 
Heartbeat CPU 0 instructions: 840000003 cycles: 655961042 heartbeat IPC: 1.18651 cumulative IPC: 1.18977 (Simulation time: 0 hr 17 min 44 sec) 
Heartbeat CPU 0 instructions: 850000001 cycles: 664294312 heartbeat IPC: 1.20001 cumulative IPC: 1.18991 (Simulation time: 0 hr 17 min 56 sec) 
Heartbeat CPU 0 instructions: 860000003 cycles: 672729320 heartbeat IPC: 1.18554 cumulative IPC: 1.18985 (Simulation time: 0 hr 18 min 8 sec) 
Heartbeat CPU 0 instructions: 870000000 cycles: 681073061 heartbeat IPC: 1.1985 cumulative IPC: 1.18996 (Simulation time: 0 hr 18 min 20 sec) 
Heartbeat CPU 0 instructions: 880000000 cycles: 689537571 heartbeat IPC: 1.1814 cumulative IPC: 1.18985 (Simulation time: 0 hr 18 min 32 sec) 
Heartbeat CPU 0 instructions: 890000003 cycles: 697884748 heartbeat IPC: 1.19801 cumulative IPC: 1.18995 (Simulation time: 0 hr 18 min 44 sec) 
Heartbeat CPU 0 instructions: 900000000 cycles: 706319135 heartbeat IPC: 1.18562 cumulative IPC: 1.1899 (Simulation time: 0 hr 18 min 56 sec) 
Heartbeat CPU 0 instructions: 910000001 cycles: 714797613 heartbeat IPC: 1.17946 cumulative IPC: 1.18977 (Simulation time: 0 hr 19 min 8 sec) 
Heartbeat CPU 0 instructions: 920000001 cycles: 723162199 heartbeat IPC: 1.19552 cumulative IPC: 1.18984 (Simulation time: 0 hr 19 min 20 sec) 
Heartbeat CPU 0 instructions: 930000000 cycles: 731514901 heartbeat IPC: 1.19722 cumulative IPC: 1.18993 (Simulation time: 0 hr 19 min 32 sec) 
Heartbeat CPU 0 instructions: 940000002 cycles: 739987670 heartbeat IPC: 1.18025 cumulative IPC: 1.18981 (Simulation time: 0 hr 19 min 44 sec) 
Heartbeat CPU 0 instructions: 950000001 cycles: 748556007 heartbeat IPC: 1.16709 cumulative IPC: 1.18954 (Simulation time: 0 hr 19 min 56 sec) 
Heartbeat CPU 0 instructions: 960000000 cycles: 757005207 heartbeat IPC: 1.18354 cumulative IPC: 1.18947 (Simulation time: 0 hr 20 min 9 sec) 
Heartbeat CPU 0 instructions: 970000002 cycles: 765481755 heartbeat IPC: 1.17973 cumulative IPC: 1.18936 (Simulation time: 0 hr 20 min 21 sec) 
Heartbeat CPU 0 instructions: 980000000 cycles: 774191179 heartbeat IPC: 1.14818 cumulative IPC: 1.18887 (Simulation time: 0 hr 20 min 33 sec) 
Heartbeat CPU 0 instructions: 990000000 cycles: 782628476 heartbeat IPC: 1.18521 cumulative IPC: 1.18883 (Simulation time: 0 hr 20 min 45 sec) 
Heartbeat CPU 0 instructions: 1000000003 cycles: 791170394 heartbeat IPC: 1.1707 cumulative IPC: 1.18863 (Simulation time: 0 hr 20 min 58 sec) 
Heartbeat CPU 0 instructions: 1010000001 cycles: 799644335 heartbeat IPC: 1.18009 cumulative IPC: 1.18853 (Simulation time: 0 hr 21 min 10 sec) 
Heartbeat CPU 0 instructions: 1020000002 cycles: 807995233 heartbeat IPC: 1.19748 cumulative IPC: 1.18863 (Simulation time: 0 hr 21 min 22 sec) 
Heartbeat CPU 0 instructions: 1030000000 cycles: 816387975 heartbeat IPC: 1.19151 cumulative IPC: 1.18866 (Simulation time: 0 hr 21 min 34 sec) 
Heartbeat CPU 0 instructions: 1040000001 cycles: 824710709 heartbeat IPC: 1.20153 cumulative IPC: 1.18879 (Simulation time: 0 hr 21 min 46 sec) 
Heartbeat CPU 0 instructions: 1050000001 cycles: 832981856 heartbeat IPC: 1.20902 cumulative IPC: 1.189 (Simulation time: 0 hr 21 min 57 sec) 
Heartbeat CPU 0 instructions: 1060000000 cycles: 841279603 heartbeat IPC: 1.20515 cumulative IPC: 1.18917 (Simulation time: 0 hr 22 min 9 sec) 
Heartbeat CPU 0 instructions: 1070000000 cycles: 849547762 heartbeat IPC: 1.20946 cumulative IPC: 1.18937 (Simulation time: 0 hr 22 min 21 sec) 
Heartbeat CPU 0 instructions: 1080000001 cycles: 857797343 heartbeat IPC: 1.21218 cumulative IPC: 1.1896 (Simulation time: 0 hr 22 min 33 sec) 
Heartbeat CPU 0 instructions: 1090000003 cycles: 866061642 heartbeat IPC: 1.21002 cumulative IPC: 1.18981 (Simulation time: 0 hr 22 min 44 sec) 
Heartbeat CPU 0 instructions: 1100000000 cycles: 874337397 heartbeat IPC: 1.20835 cumulative IPC: 1.18999 (Simulation time: 0 hr 22 min 56 sec) 
Finished CPU 0 instructions: 1000000000 cycles: 840344108 cumulative IPC: 1.18999 (Simulation time: 0 hr 22 min 56 sec) 

ChampSim completed all CPUs

Region of Interest Statistics

CPU 0 cumulative IPC: 1.18999 instructions: 1000000000 cycles: 840344108
L1D TOTAL     ACCESS:  218435444  HIT:  218268424  MISS:     167020
L1D LOAD      ACCESS:  180607660  HIT:  180576786  MISS:      30874
L1D RFO       ACCESS:   37827784  HIT:   37691638  MISS:     136146
L1D PREFETCH  ACCESS:          0  HIT:          0  MISS:          0
L1D WRITEBACK ACCESS:          0  HIT:          0  MISS:          0
L1D PREFETCH  REQUESTED:          0  ISSUED:          0  USEFUL:          0  USELESS:          0
L1D AVERAGE MISS LATENCY: 210.853 cycles
L1I TOTAL     ACCESS:  211045753  HIT:  211045753  MISS:          0
L1I LOAD      ACCESS:  211045753  HIT:  211045753  MISS:          0
L1I RFO       ACCESS:          0  HIT:          0  MISS:          0
L1I PREFETCH  ACCESS:          0  HIT:          0  MISS:          0
L1I WRITEBACK ACCESS:          0  HIT:          0  MISS:          0
L1I PREFETCH  REQUESTED:          0  ISSUED:          0  USEFUL:          0  USELESS:          0
L1I AVERAGE MISS LATENCY: -nan cycles
L2C TOTAL     ACCESS:     303344  HIT:     148953  MISS:     154391
L2C LOAD      ACCESS:      30874  HIT:       5117  MISS:      25757
L2C RFO       ACCESS:     136146  HIT:       7823  MISS:     128323
L2C PREFETCH  ACCESS:          0  HIT:          0  MISS:          0
L2C WRITEBACK ACCESS:     136324  HIT:     136013  MISS:        311
L2C PREFETCH  REQUESTED:          0  ISSUED:          0  USEFUL:          0  USELESS:          0
L2C AVERAGE MISS LATENCY: 214.713 cycles
LLC TOTAL     ACCESS:     282714  HIT:        362  MISS:     282352
LLC LOAD      ACCESS:      25757  HIT:         86  MISS:      25671
LLC RFO       ACCESS:     128323  HIT:          2  MISS:     128321
LLC PREFETCH  ACCESS:          0  HIT:          0  MISS:          0
LLC WRITEBACK ACCESS:     128634  HIT:        274  MISS:     128360
LLC PREFETCH  REQUESTED:          0  ISSUED:          0  USEFUL:          0  USELESS:          0
LLC AVERAGE MISS LATENCY: 95.3118 cycles
Major fault: 0 Minor fault: 3176

DRAM Statistics
 CHANNEL 0
 RQ ROW_BUFFER_HIT:      24080  ROW_BUFFER_MISS:     129912
 DBUS_CONGESTED:      84606
 WQ ROW_BUFFER_HIT:      20811  ROW_BUFFER_MISS:     104872  FULL:          0

 AVG_CONGESTED_CYCLE: 6

CPU 0 Branch Prediction Accuracy: 86.8535% MPKI: 19.1572 Average ROB Occupancy at Mispredict: 17.157

Branch types
NOT_BRANCH: 854278635 85.4279%
BRANCH_DIRECT_JUMP: 10863909 1.08639%
BRANCH_INDIRECT: 1041230 0.104123%
BRANCH_CONDITIONAL: 130770005 13.077%
BRANCH_DIRECT_CALL: 1522966 0.152297%
BRANCH_INDIRECT_CALL: 0 0%
BRANCH_RETURN: 1522965 0.152297%
BRANCH_OTHER: 0 0%

