
*** ChampSim Multicore Out-of-Order Simulator ***

Warmup Instructions: 100000000
Simulation Instructions: 1000000000
Number of CPUs: 1
LLC sets: 2048
LLC ways: 16
Off-chip DRAM Size: 4096 MB Channels: 1 Width: 64-bit Data Rate: 3200 MT/s

CPU 0 runs /scratch/user/kevin.weston/dpc3-traces/603.champsimtrace.xz
CPU 0 Bimodal branch predictor
Heartbeat CPU 0 instructions: 10000000 cycles: 3409066 heartbeat IPC: 2.93335 cumulative IPC: 2.93335 (Simulation time: 0 hr 0 min 17 sec) 
Heartbeat CPU 0 instructions: 20000003 cycles: 6807784 heartbeat IPC: 2.94229 cumulative IPC: 2.93781 (Simulation time: 0 hr 0 min 36 sec) 
Heartbeat CPU 0 instructions: 30000002 cycles: 10206664 heartbeat IPC: 2.94215 cumulative IPC: 2.93926 (Simulation time: 0 hr 0 min 55 sec) 
Heartbeat CPU 0 instructions: 40000002 cycles: 13618411 heartbeat IPC: 2.93105 cumulative IPC: 2.9372 (Simulation time: 0 hr 1 min 12 sec) 
Heartbeat CPU 0 instructions: 50000003 cycles: 17027550 heartbeat IPC: 2.93329 cumulative IPC: 2.93642 (Simulation time: 0 hr 1 min 29 sec) 
Heartbeat CPU 0 instructions: 60000003 cycles: 20427740 heartbeat IPC: 2.94101 cumulative IPC: 2.93718 (Simulation time: 0 hr 1 min 45 sec) 
Heartbeat CPU 0 instructions: 70000002 cycles: 23820424 heartbeat IPC: 2.94752 cumulative IPC: 2.93865 (Simulation time: 0 hr 2 min 2 sec) 
Heartbeat CPU 0 instructions: 80000000 cycles: 27213998 heartbeat IPC: 2.94675 cumulative IPC: 2.93966 (Simulation time: 0 hr 2 min 19 sec) 
Heartbeat CPU 0 instructions: 90000003 cycles: 30612827 heartbeat IPC: 2.94219 cumulative IPC: 2.93994 (Simulation time: 0 hr 2 min 36 sec) 
Heartbeat CPU 0 instructions: 100000000 cycles: 33993295 heartbeat IPC: 2.95817 cumulative IPC: 2.94176 (Simulation time: 0 hr 2 min 52 sec) 

Warmup complete CPU 0 instructions: 100000004 cycles: 33993296 (Simulation time: 0 hr 2 min 52 sec) 

Heartbeat CPU 0 instructions: 110000000 cycles: 42330977 heartbeat IPC: 1.19937 cumulative IPC: 1.19937 (Simulation time: 0 hr 3 min 4 sec) 
Heartbeat CPU 0 instructions: 120000002 cycles: 50704105 heartbeat IPC: 1.1943 cumulative IPC: 1.19683 (Simulation time: 0 hr 3 min 16 sec) 
Heartbeat CPU 0 instructions: 130000001 cycles: 59173178 heartbeat IPC: 1.18077 cumulative IPC: 1.19143 (Simulation time: 0 hr 3 min 28 sec) 
Heartbeat CPU 0 instructions: 140000002 cycles: 67805083 heartbeat IPC: 1.15849 cumulative IPC: 1.18302 (Simulation time: 0 hr 3 min 40 sec) 
Heartbeat CPU 0 instructions: 150000001 cycles: 76279251 heartbeat IPC: 1.18006 cumulative IPC: 1.18243 (Simulation time: 0 hr 3 min 52 sec) 
Heartbeat CPU 0 instructions: 160000000 cycles: 84692990 heartbeat IPC: 1.18853 cumulative IPC: 1.18344 (Simulation time: 0 hr 4 min 4 sec) 
Heartbeat CPU 0 instructions: 170000000 cycles: 93269341 heartbeat IPC: 1.166 cumulative IPC: 1.18092 (Simulation time: 0 hr 4 min 15 sec) 
Heartbeat CPU 0 instructions: 180000000 cycles: 101840764 heartbeat IPC: 1.16667 cumulative IPC: 1.17912 (Simulation time: 0 hr 4 min 27 sec) 
Heartbeat CPU 0 instructions: 190000000 cycles: 110377727 heartbeat IPC: 1.17138 cumulative IPC: 1.17825 (Simulation time: 0 hr 4 min 39 sec) 
Heartbeat CPU 0 instructions: 200000000 cycles: 118715915 heartbeat IPC: 1.1993 cumulative IPC: 1.18032 (Simulation time: 0 hr 4 min 51 sec) 
Heartbeat CPU 0 instructions: 210000001 cycles: 127150328 heartbeat IPC: 1.18562 cumulative IPC: 1.1808 (Simulation time: 0 hr 5 min 3 sec) 
Heartbeat CPU 0 instructions: 220000000 cycles: 135642808 heartbeat IPC: 1.17751 cumulative IPC: 1.18053 (Simulation time: 0 hr 5 min 15 sec) 
Heartbeat CPU 0 instructions: 230000001 cycles: 144069088 heartbeat IPC: 1.18676 cumulative IPC: 1.181 (Simulation time: 0 hr 5 min 27 sec) 
Heartbeat CPU 0 instructions: 240000000 cycles: 152517395 heartbeat IPC: 1.18367 cumulative IPC: 1.18119 (Simulation time: 0 hr 5 min 39 sec) 
Heartbeat CPU 0 instructions: 250000000 cycles: 160889410 heartbeat IPC: 1.19446 cumulative IPC: 1.18207 (Simulation time: 0 hr 5 min 51 sec) 
Heartbeat CPU 0 instructions: 260000001 cycles: 169300175 heartbeat IPC: 1.18895 cumulative IPC: 1.1825 (Simulation time: 0 hr 6 min 3 sec) 
Heartbeat CPU 0 instructions: 270000002 cycles: 177744195 heartbeat IPC: 1.18427 cumulative IPC: 1.1826 (Simulation time: 0 hr 6 min 15 sec) 
Heartbeat CPU 0 instructions: 280000003 cycles: 186079760 heartbeat IPC: 1.19968 cumulative IPC: 1.18354 (Simulation time: 0 hr 6 min 27 sec) 
Heartbeat CPU 0 instructions: 290000000 cycles: 194497901 heartbeat IPC: 1.18791 cumulative IPC: 1.18377 (Simulation time: 0 hr 6 min 38 sec) 
Heartbeat CPU 0 instructions: 300000002 cycles: 202933174 heartbeat IPC: 1.1855 cumulative IPC: 1.18385 (Simulation time: 0 hr 6 min 50 sec) 
Heartbeat CPU 0 instructions: 310000001 cycles: 211272417 heartbeat IPC: 1.19915 cumulative IPC: 1.18457 (Simulation time: 0 hr 7 min 2 sec) 
Heartbeat CPU 0 instructions: 320000002 cycles: 219726723 heartbeat IPC: 1.18283 cumulative IPC: 1.18449 (Simulation time: 0 hr 7 min 14 sec) 
Heartbeat CPU 0 instructions: 330000000 cycles: 228200915 heartbeat IPC: 1.18005 cumulative IPC: 1.1843 (Simulation time: 0 hr 7 min 26 sec) 
Heartbeat CPU 0 instructions: 340000000 cycles: 236689642 heartbeat IPC: 1.17803 cumulative IPC: 1.18404 (Simulation time: 0 hr 7 min 38 sec) 
Heartbeat CPU 0 instructions: 350000002 cycles: 245124568 heartbeat IPC: 1.18555 cumulative IPC: 1.1841 (Simulation time: 0 hr 7 min 50 sec) 
Heartbeat CPU 0 instructions: 360000000 cycles: 253636895 heartbeat IPC: 1.17477 cumulative IPC: 1.18374 (Simulation time: 0 hr 8 min 2 sec) 
Heartbeat CPU 0 instructions: 370000001 cycles: 261986390 heartbeat IPC: 1.19768 cumulative IPC: 1.18425 (Simulation time: 0 hr 8 min 14 sec) 
Heartbeat CPU 0 instructions: 380000000 cycles: 270534511 heartbeat IPC: 1.16985 cumulative IPC: 1.18373 (Simulation time: 0 hr 8 min 26 sec) 
Heartbeat CPU 0 instructions: 390000003 cycles: 278955778 heartbeat IPC: 1.18747 cumulative IPC: 1.18385 (Simulation time: 0 hr 8 min 38 sec) 
Heartbeat CPU 0 instructions: 400000001 cycles: 287540492 heartbeat IPC: 1.16486 cumulative IPC: 1.18321 (Simulation time: 0 hr 8 min 50 sec) 
Heartbeat CPU 0 instructions: 410000001 cycles: 296052037 heartbeat IPC: 1.17487 cumulative IPC: 1.18294 (Simulation time: 0 hr 9 min 2 sec) 
Heartbeat CPU 0 instructions: 420000000 cycles: 304520951 heartbeat IPC: 1.18079 cumulative IPC: 1.18287 (Simulation time: 0 hr 9 min 14 sec) 
Heartbeat CPU 0 instructions: 430000002 cycles: 312996267 heartbeat IPC: 1.1799 cumulative IPC: 1.18278 (Simulation time: 0 hr 9 min 26 sec) 
Heartbeat CPU 0 instructions: 440000000 cycles: 321550291 heartbeat IPC: 1.16904 cumulative IPC: 1.18237 (Simulation time: 0 hr 9 min 38 sec) 
Heartbeat CPU 0 instructions: 450000003 cycles: 329933399 heartbeat IPC: 1.19288 cumulative IPC: 1.18267 (Simulation time: 0 hr 9 min 50 sec) 
Heartbeat CPU 0 instructions: 460000000 cycles: 338310475 heartbeat IPC: 1.19373 cumulative IPC: 1.18298 (Simulation time: 0 hr 10 min 2 sec) 
Heartbeat CPU 0 instructions: 470000000 cycles: 346579042 heartbeat IPC: 1.2094 cumulative IPC: 1.18368 (Simulation time: 0 hr 10 min 13 sec) 
Heartbeat CPU 0 instructions: 480000001 cycles: 354897419 heartbeat IPC: 1.20216 cumulative IPC: 1.18415 (Simulation time: 0 hr 10 min 25 sec) 
Heartbeat CPU 0 instructions: 490000000 cycles: 363167741 heartbeat IPC: 1.20914 cumulative IPC: 1.18478 (Simulation time: 0 hr 10 min 37 sec) 
Heartbeat CPU 0 instructions: 500000001 cycles: 371435693 heartbeat IPC: 1.20949 cumulative IPC: 1.18539 (Simulation time: 0 hr 10 min 48 sec) 
Heartbeat CPU 0 instructions: 510000001 cycles: 379696087 heartbeat IPC: 1.2106 cumulative IPC: 1.18599 (Simulation time: 0 hr 11 min 0 sec) 
Heartbeat CPU 0 instructions: 520000002 cycles: 387961415 heartbeat IPC: 1.20987 cumulative IPC: 1.18655 (Simulation time: 0 hr 11 min 12 sec) 
Heartbeat CPU 0 instructions: 530000003 cycles: 396233468 heartbeat IPC: 1.20889 cumulative IPC: 1.18706 (Simulation time: 0 hr 11 min 29 sec) 
Heartbeat CPU 0 instructions: 540000000 cycles: 404468446 heartbeat IPC: 1.21433 cumulative IPC: 1.18766 (Simulation time: 0 hr 11 min 44 sec) 
Heartbeat CPU 0 instructions: 550000000 cycles: 412727242 heartbeat IPC: 1.21083 cumulative IPC: 1.18817 (Simulation time: 0 hr 11 min 56 sec) 
Heartbeat CPU 0 instructions: 560000002 cycles: 420992266 heartbeat IPC: 1.20992 cumulative IPC: 1.18863 (Simulation time: 0 hr 12 min 8 sec) 
Heartbeat CPU 0 instructions: 570000001 cycles: 429255233 heartbeat IPC: 1.21022 cumulative IPC: 1.18908 (Simulation time: 0 hr 12 min 19 sec) 
Heartbeat CPU 0 instructions: 580000000 cycles: 437504180 heartbeat IPC: 1.21228 cumulative IPC: 1.18956 (Simulation time: 0 hr 12 min 31 sec) 
Heartbeat CPU 0 instructions: 590000001 cycles: 445774152 heartbeat IPC: 1.20919 cumulative IPC: 1.18995 (Simulation time: 0 hr 12 min 43 sec) 
Heartbeat CPU 0 instructions: 600000003 cycles: 454042126 heartbeat IPC: 1.20949 cumulative IPC: 1.19034 (Simulation time: 0 hr 12 min 54 sec) 
Heartbeat CPU 0 instructions: 610000000 cycles: 462298511 heartbeat IPC: 1.21118 cumulative IPC: 1.19074 (Simulation time: 0 hr 13 min 6 sec) 
Heartbeat CPU 0 instructions: 620000003 cycles: 470575110 heartbeat IPC: 1.20823 cumulative IPC: 1.19107 (Simulation time: 0 hr 13 min 18 sec) 
Heartbeat CPU 0 instructions: 630000001 cycles: 478852331 heartbeat IPC: 1.20813 cumulative IPC: 1.19139 (Simulation time: 0 hr 13 min 29 sec) 
Heartbeat CPU 0 instructions: 640000003 cycles: 487136044 heartbeat IPC: 1.20719 cumulative IPC: 1.19168 (Simulation time: 0 hr 13 min 41 sec) 
Heartbeat CPU 0 instructions: 650000003 cycles: 495409783 heartbeat IPC: 1.20864 cumulative IPC: 1.19198 (Simulation time: 0 hr 13 min 53 sec) 
Heartbeat CPU 0 instructions: 660000000 cycles: 503784674 heartbeat IPC: 1.19405 cumulative IPC: 1.19202 (Simulation time: 0 hr 14 min 5 sec) 
Heartbeat CPU 0 instructions: 670000002 cycles: 512263602 heartbeat IPC: 1.17939 cumulative IPC: 1.19179 (Simulation time: 0 hr 14 min 17 sec) 
Heartbeat CPU 0 instructions: 680000003 cycles: 520804508 heartbeat IPC: 1.17084 cumulative IPC: 1.19143 (Simulation time: 0 hr 14 min 29 sec) 
Heartbeat CPU 0 instructions: 690000003 cycles: 529281509 heartbeat IPC: 1.17966 cumulative IPC: 1.19123 (Simulation time: 0 hr 14 min 40 sec) 
Heartbeat CPU 0 instructions: 700000000 cycles: 537679268 heartbeat IPC: 1.19079 cumulative IPC: 1.19122 (Simulation time: 0 hr 14 min 52 sec) 
Heartbeat CPU 0 instructions: 710000000 cycles: 546202032 heartbeat IPC: 1.17333 cumulative IPC: 1.19092 (Simulation time: 0 hr 15 min 4 sec) 
Heartbeat CPU 0 instructions: 720000001 cycles: 554843926 heartbeat IPC: 1.15715 cumulative IPC: 1.19036 (Simulation time: 0 hr 15 min 16 sec) 
Heartbeat CPU 0 instructions: 730000002 cycles: 563376208 heartbeat IPC: 1.17202 cumulative IPC: 1.19006 (Simulation time: 0 hr 15 min 28 sec) 
Heartbeat CPU 0 instructions: 740000001 cycles: 571811847 heartbeat IPC: 1.18545 cumulative IPC: 1.18999 (Simulation time: 0 hr 15 min 40 sec) 
Heartbeat CPU 0 instructions: 750000000 cycles: 580348083 heartbeat IPC: 1.17148 cumulative IPC: 1.1897 (Simulation time: 0 hr 15 min 52 sec) 
Heartbeat CPU 0 instructions: 760000000 cycles: 588805382 heartbeat IPC: 1.18241 cumulative IPC: 1.18959 (Simulation time: 0 hr 16 min 4 sec) 
Heartbeat CPU 0 instructions: 770000000 cycles: 597163795 heartbeat IPC: 1.1964 cumulative IPC: 1.18969 (Simulation time: 0 hr 16 min 16 sec) 
Heartbeat CPU 0 instructions: 780000002 cycles: 605599508 heartbeat IPC: 1.18544 cumulative IPC: 1.18963 (Simulation time: 0 hr 16 min 28 sec) 
Heartbeat CPU 0 instructions: 790000003 cycles: 613942922 heartbeat IPC: 1.19855 cumulative IPC: 1.18976 (Simulation time: 0 hr 16 min 40 sec) 
Heartbeat CPU 0 instructions: 800000002 cycles: 622367798 heartbeat IPC: 1.18696 cumulative IPC: 1.18972 (Simulation time: 0 hr 16 min 52 sec) 
Heartbeat CPU 0 instructions: 810000002 cycles: 630784150 heartbeat IPC: 1.18816 cumulative IPC: 1.1897 (Simulation time: 0 hr 17 min 4 sec) 
Heartbeat CPU 0 instructions: 820000000 cycles: 639193843 heartbeat IPC: 1.1891 cumulative IPC: 1.18969 (Simulation time: 0 hr 17 min 16 sec) 
Heartbeat CPU 0 instructions: 830000002 cycles: 647540359 heartbeat IPC: 1.1981 cumulative IPC: 1.1898 (Simulation time: 0 hr 17 min 28 sec) 
Heartbeat CPU 0 instructions: 840000003 cycles: 655973647 heartbeat IPC: 1.18578 cumulative IPC: 1.18975 (Simulation time: 0 hr 17 min 40 sec) 
Heartbeat CPU 0 instructions: 850000001 cycles: 664306788 heartbeat IPC: 1.20003 cumulative IPC: 1.18988 (Simulation time: 0 hr 17 min 52 sec) 
Heartbeat CPU 0 instructions: 860000003 cycles: 672741854 heartbeat IPC: 1.18553 cumulative IPC: 1.18983 (Simulation time: 0 hr 18 min 3 sec) 
Heartbeat CPU 0 instructions: 870000000 cycles: 681084270 heartbeat IPC: 1.19869 cumulative IPC: 1.18994 (Simulation time: 0 hr 18 min 15 sec) 
Heartbeat CPU 0 instructions: 880000000 cycles: 689548650 heartbeat IPC: 1.18142 cumulative IPC: 1.18983 (Simulation time: 0 hr 18 min 27 sec) 
Heartbeat CPU 0 instructions: 890000003 cycles: 697895660 heartbeat IPC: 1.19803 cumulative IPC: 1.18993 (Simulation time: 0 hr 18 min 39 sec) 
Heartbeat CPU 0 instructions: 900000000 cycles: 706330763 heartbeat IPC: 1.18552 cumulative IPC: 1.18988 (Simulation time: 0 hr 18 min 51 sec) 
Heartbeat CPU 0 instructions: 910000001 cycles: 714808767 heartbeat IPC: 1.17952 cumulative IPC: 1.18975 (Simulation time: 0 hr 19 min 3 sec) 
Heartbeat CPU 0 instructions: 920000001 cycles: 723173629 heartbeat IPC: 1.19548 cumulative IPC: 1.18982 (Simulation time: 0 hr 19 min 15 sec) 
Heartbeat CPU 0 instructions: 930000000 cycles: 731525925 heartbeat IPC: 1.19728 cumulative IPC: 1.18991 (Simulation time: 0 hr 19 min 27 sec) 
Heartbeat CPU 0 instructions: 940000002 cycles: 739998721 heartbeat IPC: 1.18025 cumulative IPC: 1.18979 (Simulation time: 0 hr 19 min 39 sec) 
Heartbeat CPU 0 instructions: 950000001 cycles: 748568164 heartbeat IPC: 1.16694 cumulative IPC: 1.18952 (Simulation time: 0 hr 19 min 51 sec) 
Heartbeat CPU 0 instructions: 960000000 cycles: 757016450 heartbeat IPC: 1.18367 cumulative IPC: 1.18945 (Simulation time: 0 hr 20 min 3 sec) 
Heartbeat CPU 0 instructions: 970000002 cycles: 765491658 heartbeat IPC: 1.17991 cumulative IPC: 1.18934 (Simulation time: 0 hr 20 min 15 sec) 
Heartbeat CPU 0 instructions: 980000000 cycles: 774202650 heartbeat IPC: 1.14797 cumulative IPC: 1.18885 (Simulation time: 0 hr 20 min 27 sec) 
Heartbeat CPU 0 instructions: 990000000 cycles: 782638029 heartbeat IPC: 1.18548 cumulative IPC: 1.18881 (Simulation time: 0 hr 20 min 39 sec) 
Heartbeat CPU 0 instructions: 1000000003 cycles: 791180658 heartbeat IPC: 1.1706 cumulative IPC: 1.18861 (Simulation time: 0 hr 20 min 51 sec) 
Heartbeat CPU 0 instructions: 1010000001 cycles: 799654187 heartbeat IPC: 1.18015 cumulative IPC: 1.18852 (Simulation time: 0 hr 21 min 3 sec) 
Heartbeat CPU 0 instructions: 1020000002 cycles: 808005483 heartbeat IPC: 1.19742 cumulative IPC: 1.18861 (Simulation time: 0 hr 21 min 15 sec) 
Heartbeat CPU 0 instructions: 1030000000 cycles: 816397942 heartbeat IPC: 1.19155 cumulative IPC: 1.18864 (Simulation time: 0 hr 21 min 27 sec) 
Heartbeat CPU 0 instructions: 1040000001 cycles: 824718891 heartbeat IPC: 1.20179 cumulative IPC: 1.18878 (Simulation time: 0 hr 21 min 39 sec) 
Heartbeat CPU 0 instructions: 1050000001 cycles: 832989732 heartbeat IPC: 1.20907 cumulative IPC: 1.18899 (Simulation time: 0 hr 21 min 51 sec) 
Heartbeat CPU 0 instructions: 1060000000 cycles: 841286572 heartbeat IPC: 1.20528 cumulative IPC: 1.18916 (Simulation time: 0 hr 22 min 2 sec) 
Heartbeat CPU 0 instructions: 1070000000 cycles: 849552607 heartbeat IPC: 1.20977 cumulative IPC: 1.18937 (Simulation time: 0 hr 22 min 14 sec) 
Heartbeat CPU 0 instructions: 1080000001 cycles: 857802807 heartbeat IPC: 1.21209 cumulative IPC: 1.1896 (Simulation time: 0 hr 22 min 26 sec) 
Heartbeat CPU 0 instructions: 1090000003 cycles: 866067106 heartbeat IPC: 1.21002 cumulative IPC: 1.1898 (Simulation time: 0 hr 22 min 37 sec) 
Heartbeat CPU 0 instructions: 1100000000 cycles: 874343065 heartbeat IPC: 1.20832 cumulative IPC: 1.18998 (Simulation time: 0 hr 22 min 49 sec) 
Finished CPU 0 instructions: 1000000000 cycles: 840349776 cumulative IPC: 1.18998 (Simulation time: 0 hr 22 min 49 sec) 

ChampSim completed all CPUs

Region of Interest Statistics

CPU 0 cumulative IPC: 1.18998 instructions: 1000000000 cycles: 840349776
L1D TOTAL     ACCESS:  218435112  HIT:  218268092  MISS:     167020
L1D LOAD      ACCESS:  180607646  HIT:  180576772  MISS:      30874
L1D RFO       ACCESS:   37827466  HIT:   37691320  MISS:     136146
L1D PREFETCH  ACCESS:          0  HIT:          0  MISS:          0
L1D WRITEBACK ACCESS:          0  HIT:          0  MISS:          0
L1D PREFETCH  REQUESTED:          0  ISSUED:          0  USEFUL:          0  USELESS:          0
L1D AVERAGE MISS LATENCY: 212.246 cycles
L1I TOTAL     ACCESS:  211045855  HIT:  211045855  MISS:          0
L1I LOAD      ACCESS:  211045855  HIT:  211045855  MISS:          0
L1I RFO       ACCESS:          0  HIT:          0  MISS:          0
L1I PREFETCH  ACCESS:          0  HIT:          0  MISS:          0
L1I WRITEBACK ACCESS:          0  HIT:          0  MISS:          0
L1I PREFETCH  REQUESTED:          0  ISSUED:          0  USEFUL:          0  USELESS:          0
L1I AVERAGE MISS LATENCY: -nan cycles
L2C TOTAL     ACCESS:     303344  HIT:     148946  MISS:     154398
L2C LOAD      ACCESS:      30874  HIT:       5115  MISS:      25759
L2C RFO       ACCESS:     136146  HIT:       7822  MISS:     128324
L2C PREFETCH  ACCESS:          0  HIT:          0  MISS:          0
L2C WRITEBACK ACCESS:     136324  HIT:     136009  MISS:        315
L2C PREFETCH  REQUESTED:          0  ISSUED:          0  USEFUL:          0  USELESS:          0
L2C AVERAGE MISS LATENCY: 216.21 cycles
LLC TOTAL     ACCESS:     282730  HIT:     128581  MISS:     154149
LLC LOAD      ACCESS:      25759  HIT:         72  MISS:      25687
LLC RFO       ACCESS:     128324  HIT:          2  MISS:     128322
LLC PREFETCH  ACCESS:          0  HIT:          0  MISS:          0
LLC WRITEBACK ACCESS:     128647  HIT:     128507  MISS:        140
LLC PREFETCH  REQUESTED:          0  ISSUED:          0  USEFUL:          0  USELESS:          0
LLC AVERAGE MISS LATENCY: 176.08 cycles
Major fault: 0 Minor fault: 3176

DRAM Statistics
 CHANNEL 0
 RQ ROW_BUFFER_HIT:      21767  ROW_BUFFER_MISS:     132242
 DBUS_CONGESTED:      86840
 WQ ROW_BUFFER_HIT:      21807  ROW_BUFFER_MISS:     106211  FULL:          0

 AVG_CONGESTED_CYCLE: 6

CPU 0 Branch Prediction Accuracy: 86.8535% MPKI: 19.1572 Average ROB Occupancy at Mispredict: 17.157

Branch types
NOT_BRANCH: 854278635 85.4279%
BRANCH_DIRECT_JUMP: 10863909 1.08639%
BRANCH_INDIRECT: 1041230 0.104123%
BRANCH_CONDITIONAL: 130770005 13.077%
BRANCH_DIRECT_CALL: 1522966 0.152297%
BRANCH_INDIRECT_CALL: 0 0%
BRANCH_RETURN: 1522965 0.152297%
BRANCH_OTHER: 0 0%

