
*** ChampSim Multicore Out-of-Order Simulator ***

Warmup Instructions: 100000000
Simulation Instructions: 1000000000
Number of CPUs: 1
LLC sets: 2048
LLC ways: 16
Off-chip DRAM Size: 4096 MB Channels: 1 Width: 64-bit Data Rate: 3200 MT/s

CPU 0 runs /scratch/user/kevin.weston/dpc3-traces/603.champsimtrace.xz
CPU 0 Bimodal branch predictor
Per-line RRPV Initialized
PRRIP State Initialized
Assign SAMPLER_SET[0]: 454  LLC: 2048
SAMPLER_SET[0]: 454
Assign SAMPLER_SET[1]: 1662  LLC: 2048
SAMPLER_SET[1]: 1662
Assign SAMPLER_SET[2]: 1921  LLC: 2048
SAMPLER_SET[2]: 1921
Assign SAMPLER_SET[3]: 1131  LLC: 2048
SAMPLER_SET[3]: 1131
Assign SAMPLER_SET[4]: 331  LLC: 2048
SAMPLER_SET[4]: 331
Assign SAMPLER_SET[5]: 1531  LLC: 2048
SAMPLER_SET[5]: 1531
Assign SAMPLER_SET[6]: 482  LLC: 2048
SAMPLER_SET[6]: 482
Assign SAMPLER_SET[7]: 1275  LLC: 2048
SAMPLER_SET[7]: 1275
Assign SAMPLER_SET[8]: 1876  LLC: 2048
SAMPLER_SET[8]: 1876
Assign SAMPLER_SET[9]: 2038  LLC: 2048
SAMPLER_SET[9]: 2038
Assign SAMPLER_SET[10]: 701  LLC: 2048
SAMPLER_SET[10]: 701
Assign SAMPLER_SET[11]: 479  LLC: 2048
SAMPLER_SET[11]: 479
Assign SAMPLER_SET[12]: 892  LLC: 2048
SAMPLER_SET[12]: 892
Assign SAMPLER_SET[13]: 1820  LLC: 2048
SAMPLER_SET[13]: 1820
Assign SAMPLER_SET[14]: 1505  LLC: 2048
SAMPLER_SET[14]: 1505
Assign SAMPLER_SET[15]: 1159  LLC: 2048
SAMPLER_SET[15]: 1159
Assign SAMPLER_SET[16]: 513  LLC: 2048
SAMPLER_SET[16]: 513
Assign SAMPLER_SET[17]: 703  LLC: 2048
SAMPLER_SET[17]: 703
Assign SAMPLER_SET[18]: 561  LLC: 2048
SAMPLER_SET[18]: 561
Assign SAMPLER_SET[19]: 990  LLC: 2048
SAMPLER_SET[19]: 990
Assign SAMPLER_SET[20]: 342  LLC: 2048
SAMPLER_SET[20]: 342
Assign SAMPLER_SET[21]: 882  LLC: 2048
SAMPLER_SET[21]: 882
Assign SAMPLER_SET[22]: 15  LLC: 2048
SAMPLER_SET[22]: 15
Assign SAMPLER_SET[23]: 71  LLC: 2048
SAMPLER_SET[23]: 71
Assign SAMPLER_SET[24]: 1127  LLC: 2048
SAMPLER_SET[24]: 1127
Assign SAMPLER_SET[25]: 1382  LLC: 2048
SAMPLER_SET[25]: 1382
Assign SAMPLER_SET[26]: 647  LLC: 2048
SAMPLER_SET[26]: 647
Assign SAMPLER_SET[27]: 857  LLC: 2048
SAMPLER_SET[27]: 857
Assign SAMPLER_SET[28]: 1450  LLC: 2048
SAMPLER_SET[28]: 1450
Assign SAMPLER_SET[29]: 1160  LLC: 2048
SAMPLER_SET[29]: 1160
Assign SAMPLER_SET[30]: 1852  LLC: 2048
SAMPLER_SET[30]: 1852
Assign SAMPLER_SET[31]: 1881  LLC: 2048
SAMPLER_SET[31]: 1881
Assign SAMPLER_SET[32]: 1770  LLC: 2048
SAMPLER_SET[32]: 1770
Assign SAMPLER_SET[33]: 1622  LLC: 2048
SAMPLER_SET[33]: 1622
Assign SAMPLER_SET[34]: 275  LLC: 2048
SAMPLER_SET[34]: 275
Assign SAMPLER_SET[35]: 635  LLC: 2048
SAMPLER_SET[35]: 635
Assign SAMPLER_SET[36]: 466  LLC: 2048
SAMPLER_SET[36]: 466
Assign SAMPLER_SET[37]: 1413  LLC: 2048
SAMPLER_SET[37]: 1413
Assign SAMPLER_SET[38]: 417  LLC: 2048
SAMPLER_SET[38]: 417
Assign SAMPLER_SET[39]: 472  LLC: 2048
SAMPLER_SET[39]: 472
Assign SAMPLER_SET[40]: 1340  LLC: 2048
SAMPLER_SET[40]: 1340
Assign SAMPLER_SET[41]: 852  LLC: 2048
SAMPLER_SET[41]: 852
Assign SAMPLER_SET[42]: 1365  LLC: 2048
SAMPLER_SET[42]: 1365
Assign SAMPLER_SET[43]: 47  LLC: 2048
SAMPLER_SET[43]: 47
Assign SAMPLER_SET[44]: 823  LLC: 2048
SAMPLER_SET[44]: 823
Assign SAMPLER_SET[45]: 686  LLC: 2048
SAMPLER_SET[45]: 686
Assign SAMPLER_SET[46]: 1637  LLC: 2048
SAMPLER_SET[46]: 1637
Assign SAMPLER_SET[47]: 1115  LLC: 2048
SAMPLER_SET[47]: 1115
Assign SAMPLER_SET[48]: 986  LLC: 2048
SAMPLER_SET[48]: 986
Assign SAMPLER_SET[49]: 258  LLC: 2048
SAMPLER_SET[49]: 258
Assign SAMPLER_SET[50]: 633  LLC: 2048
SAMPLER_SET[50]: 633
Assign SAMPLER_SET[51]: 920  LLC: 2048
SAMPLER_SET[51]: 920
Assign SAMPLER_SET[52]: 204  LLC: 2048
SAMPLER_SET[52]: 204
Assign SAMPLER_SET[53]: 227  LLC: 2048
SAMPLER_SET[53]: 227
Assign SAMPLER_SET[54]: 1818  LLC: 2048
SAMPLER_SET[54]: 1818
Assign SAMPLER_SET[55]: 886  LLC: 2048
SAMPLER_SET[55]: 886
Assign SAMPLER_SET[56]: 1422  LLC: 2048
SAMPLER_SET[56]: 1422
Assign SAMPLER_SET[57]: 607  LLC: 2048
SAMPLER_SET[57]: 607
Assign SAMPLER_SET[58]: 217  LLC: 2048
SAMPLER_SET[58]: 217
Assign SAMPLER_SET[59]: 1945  LLC: 2048
SAMPLER_SET[59]: 1945
Assign SAMPLER_SET[60]: 143  LLC: 2048
SAMPLER_SET[60]: 143
Assign SAMPLER_SET[61]: 1311  LLC: 2048
SAMPLER_SET[61]: 1311
Assign SAMPLER_SET[62]: 319  LLC: 2048
SAMPLER_SET[62]: 319
Assign SAMPLER_SET[63]: 1846  LLC: 2048
SAMPLER_SET[63]: 1846
Heartbeat CPU 0 instructions: 10000000 cycles: 3409066 heartbeat IPC: 2.93335 cumulative IPC: 2.93335 (Simulation time: 0 hr 0 min 17 sec) 
Heartbeat CPU 0 instructions: 20000003 cycles: 6807784 heartbeat IPC: 2.94229 cumulative IPC: 2.93781 (Simulation time: 0 hr 0 min 36 sec) 
Heartbeat CPU 0 instructions: 30000002 cycles: 10206664 heartbeat IPC: 2.94215 cumulative IPC: 2.93926 (Simulation time: 0 hr 0 min 56 sec) 
Heartbeat CPU 0 instructions: 40000002 cycles: 13618411 heartbeat IPC: 2.93105 cumulative IPC: 2.9372 (Simulation time: 0 hr 1 min 13 sec) 
Heartbeat CPU 0 instructions: 50000003 cycles: 17027550 heartbeat IPC: 2.93329 cumulative IPC: 2.93642 (Simulation time: 0 hr 1 min 30 sec) 
Heartbeat CPU 0 instructions: 60000003 cycles: 20427740 heartbeat IPC: 2.94101 cumulative IPC: 2.93718 (Simulation time: 0 hr 1 min 47 sec) 
Heartbeat CPU 0 instructions: 70000002 cycles: 23820424 heartbeat IPC: 2.94752 cumulative IPC: 2.93865 (Simulation time: 0 hr 2 min 4 sec) 
Heartbeat CPU 0 instructions: 80000000 cycles: 27213998 heartbeat IPC: 2.94675 cumulative IPC: 2.93966 (Simulation time: 0 hr 2 min 20 sec) 
Heartbeat CPU 0 instructions: 90000003 cycles: 30612827 heartbeat IPC: 2.94219 cumulative IPC: 2.93994 (Simulation time: 0 hr 2 min 37 sec) 
Heartbeat CPU 0 instructions: 100000000 cycles: 33993295 heartbeat IPC: 2.95817 cumulative IPC: 2.94176 (Simulation time: 0 hr 2 min 54 sec) 

Warmup complete CPU 0 instructions: 100000004 cycles: 33993296 (Simulation time: 0 hr 2 min 54 sec) 

Heartbeat CPU 0 instructions: 110000000 cycles: 42331189 heartbeat IPC: 1.19934 cumulative IPC: 1.19934 (Simulation time: 0 hr 3 min 6 sec) 
Heartbeat CPU 0 instructions: 120000002 cycles: 50705822 heartbeat IPC: 1.19408 cumulative IPC: 1.19671 (Simulation time: 0 hr 3 min 18 sec) 
Heartbeat CPU 0 instructions: 130000001 cycles: 59176147 heartbeat IPC: 1.18059 cumulative IPC: 1.19129 (Simulation time: 0 hr 3 min 30 sec) 
Heartbeat CPU 0 instructions: 140000002 cycles: 67808221 heartbeat IPC: 1.15847 cumulative IPC: 1.18291 (Simulation time: 0 hr 3 min 43 sec) 
Heartbeat CPU 0 instructions: 150000001 cycles: 76281305 heartbeat IPC: 1.18021 cumulative IPC: 1.18237 (Simulation time: 0 hr 3 min 55 sec) 
Heartbeat CPU 0 instructions: 160000000 cycles: 84694933 heartbeat IPC: 1.18855 cumulative IPC: 1.18339 (Simulation time: 0 hr 4 min 7 sec) 
Heartbeat CPU 0 instructions: 170000000 cycles: 93271225 heartbeat IPC: 1.16601 cumulative IPC: 1.18088 (Simulation time: 0 hr 4 min 19 sec) 
Heartbeat CPU 0 instructions: 180000000 cycles: 101846169 heartbeat IPC: 1.16619 cumulative IPC: 1.17902 (Simulation time: 0 hr 4 min 31 sec) 
Heartbeat CPU 0 instructions: 190000000 cycles: 110383036 heartbeat IPC: 1.17139 cumulative IPC: 1.17817 (Simulation time: 0 hr 4 min 43 sec) 
Heartbeat CPU 0 instructions: 200000000 cycles: 118718702 heartbeat IPC: 1.19966 cumulative IPC: 1.18028 (Simulation time: 0 hr 4 min 55 sec) 
Heartbeat CPU 0 instructions: 210000001 cycles: 127143260 heartbeat IPC: 1.18701 cumulative IPC: 1.18089 (Simulation time: 0 hr 5 min 7 sec) 
Heartbeat CPU 0 instructions: 220000000 cycles: 135628260 heartbeat IPC: 1.17855 cumulative IPC: 1.1807 (Simulation time: 0 hr 5 min 20 sec) 
Heartbeat CPU 0 instructions: 230000001 cycles: 144055042 heartbeat IPC: 1.18669 cumulative IPC: 1.18116 (Simulation time: 0 hr 5 min 32 sec) 
Heartbeat CPU 0 instructions: 240000000 cycles: 152507728 heartbeat IPC: 1.18306 cumulative IPC: 1.18129 (Simulation time: 0 hr 5 min 44 sec) 
Heartbeat CPU 0 instructions: 250000000 cycles: 160882781 heartbeat IPC: 1.19402 cumulative IPC: 1.18213 (Simulation time: 0 hr 5 min 56 sec) 
Heartbeat CPU 0 instructions: 260000001 cycles: 169293283 heartbeat IPC: 1.18899 cumulative IPC: 1.18256 (Simulation time: 0 hr 6 min 8 sec) 
Heartbeat CPU 0 instructions: 270000002 cycles: 177739549 heartbeat IPC: 1.18396 cumulative IPC: 1.18264 (Simulation time: 0 hr 6 min 20 sec) 
Heartbeat CPU 0 instructions: 280000003 cycles: 186072312 heartbeat IPC: 1.20008 cumulative IPC: 1.1836 (Simulation time: 0 hr 6 min 32 sec) 
Heartbeat CPU 0 instructions: 290000000 cycles: 194489736 heartbeat IPC: 1.18801 cumulative IPC: 1.18383 (Simulation time: 0 hr 6 min 44 sec) 
Heartbeat CPU 0 instructions: 300000002 cycles: 202926175 heartbeat IPC: 1.18533 cumulative IPC: 1.1839 (Simulation time: 0 hr 6 min 56 sec) 
Heartbeat CPU 0 instructions: 310000001 cycles: 211266479 heartbeat IPC: 1.199 cumulative IPC: 1.18461 (Simulation time: 0 hr 7 min 8 sec) 
Heartbeat CPU 0 instructions: 320000002 cycles: 219724991 heartbeat IPC: 1.18224 cumulative IPC: 1.1845 (Simulation time: 0 hr 7 min 21 sec) 
Heartbeat CPU 0 instructions: 330000000 cycles: 228200085 heartbeat IPC: 1.17993 cumulative IPC: 1.1843 (Simulation time: 0 hr 7 min 33 sec) 
Heartbeat CPU 0 instructions: 340000000 cycles: 236690554 heartbeat IPC: 1.17779 cumulative IPC: 1.18403 (Simulation time: 0 hr 7 min 45 sec) 
Heartbeat CPU 0 instructions: 350000002 cycles: 245125764 heartbeat IPC: 1.18551 cumulative IPC: 1.18409 (Simulation time: 0 hr 7 min 58 sec) 
Heartbeat CPU 0 instructions: 360000000 cycles: 253625918 heartbeat IPC: 1.17645 cumulative IPC: 1.18379 (Simulation time: 0 hr 8 min 10 sec) 
Heartbeat CPU 0 instructions: 370000001 cycles: 261976493 heartbeat IPC: 1.19752 cumulative IPC: 1.1843 (Simulation time: 0 hr 8 min 22 sec) 
Heartbeat CPU 0 instructions: 380000000 cycles: 270526497 heartbeat IPC: 1.16959 cumulative IPC: 1.18377 (Simulation time: 0 hr 8 min 34 sec) 
Heartbeat CPU 0 instructions: 390000003 cycles: 278947927 heartbeat IPC: 1.18745 cumulative IPC: 1.18389 (Simulation time: 0 hr 8 min 47 sec) 
Heartbeat CPU 0 instructions: 400000001 cycles: 287534082 heartbeat IPC: 1.16467 cumulative IPC: 1.18324 (Simulation time: 0 hr 8 min 59 sec) 
Heartbeat CPU 0 instructions: 410000001 cycles: 296044706 heartbeat IPC: 1.175 cumulative IPC: 1.18297 (Simulation time: 0 hr 9 min 11 sec) 
Heartbeat CPU 0 instructions: 420000000 cycles: 304514057 heartbeat IPC: 1.18073 cumulative IPC: 1.1829 (Simulation time: 0 hr 9 min 23 sec) 
Heartbeat CPU 0 instructions: 430000002 cycles: 312990898 heartbeat IPC: 1.17968 cumulative IPC: 1.18281 (Simulation time: 0 hr 9 min 36 sec) 
Heartbeat CPU 0 instructions: 440000000 cycles: 321550044 heartbeat IPC: 1.16834 cumulative IPC: 1.18238 (Simulation time: 0 hr 9 min 48 sec) 
Heartbeat CPU 0 instructions: 450000003 cycles: 329933254 heartbeat IPC: 1.19286 cumulative IPC: 1.18267 (Simulation time: 0 hr 10 min 0 sec) 
Heartbeat CPU 0 instructions: 460000000 cycles: 338308037 heartbeat IPC: 1.19406 cumulative IPC: 1.18299 (Simulation time: 0 hr 10 min 12 sec) 
Heartbeat CPU 0 instructions: 470000000 cycles: 346576504 heartbeat IPC: 1.20941 cumulative IPC: 1.18368 (Simulation time: 0 hr 10 min 24 sec) 
Heartbeat CPU 0 instructions: 480000001 cycles: 354896472 heartbeat IPC: 1.20193 cumulative IPC: 1.18416 (Simulation time: 0 hr 10 min 36 sec) 
Heartbeat CPU 0 instructions: 490000000 cycles: 363165994 heartbeat IPC: 1.20926 cumulative IPC: 1.18479 (Simulation time: 0 hr 10 min 48 sec) 
Heartbeat CPU 0 instructions: 500000001 cycles: 371434386 heartbeat IPC: 1.20943 cumulative IPC: 1.18539 (Simulation time: 0 hr 11 min 0 sec) 
Heartbeat CPU 0 instructions: 510000001 cycles: 379694843 heartbeat IPC: 1.21059 cumulative IPC: 1.18599 (Simulation time: 0 hr 11 min 12 sec) 
Heartbeat CPU 0 instructions: 520000002 cycles: 387959888 heartbeat IPC: 1.20991 cumulative IPC: 1.18655 (Simulation time: 0 hr 11 min 24 sec) 
Heartbeat CPU 0 instructions: 530000003 cycles: 395968052 heartbeat IPC: 1.24873 cumulative IPC: 1.18793 (Simulation time: 0 hr 11 min 41 sec) 
Heartbeat CPU 0 instructions: 540000000 cycles: 404044348 heartbeat IPC: 1.23819 cumulative IPC: 1.18903 (Simulation time: 0 hr 11 min 56 sec) 
Heartbeat CPU 0 instructions: 550000000 cycles: 412303742 heartbeat IPC: 1.21074 cumulative IPC: 1.1895 (Simulation time: 0 hr 12 min 8 sec) 
Heartbeat CPU 0 instructions: 560000002 cycles: 420569468 heartbeat IPC: 1.20982 cumulative IPC: 1.18993 (Simulation time: 0 hr 12 min 20 sec) 
Heartbeat CPU 0 instructions: 570000001 cycles: 428831132 heartbeat IPC: 1.21041 cumulative IPC: 1.19036 (Simulation time: 0 hr 12 min 32 sec) 
Heartbeat CPU 0 instructions: 580000000 cycles: 437078969 heartbeat IPC: 1.21244 cumulative IPC: 1.19081 (Simulation time: 0 hr 12 min 44 sec) 
Heartbeat CPU 0 instructions: 590000001 cycles: 445348941 heartbeat IPC: 1.20919 cumulative IPC: 1.19118 (Simulation time: 0 hr 12 min 55 sec) 
Heartbeat CPU 0 instructions: 600000003 cycles: 453617015 heartbeat IPC: 1.20947 cumulative IPC: 1.19154 (Simulation time: 0 hr 13 min 7 sec) 
Heartbeat CPU 0 instructions: 610000000 cycles: 461872888 heartbeat IPC: 1.21126 cumulative IPC: 1.19192 (Simulation time: 0 hr 13 min 19 sec) 
Heartbeat CPU 0 instructions: 620000003 cycles: 470149480 heartbeat IPC: 1.20823 cumulative IPC: 1.19223 (Simulation time: 0 hr 13 min 31 sec) 
Heartbeat CPU 0 instructions: 630000001 cycles: 478428216 heartbeat IPC: 1.20791 cumulative IPC: 1.19253 (Simulation time: 0 hr 13 min 43 sec) 
Heartbeat CPU 0 instructions: 640000003 cycles: 486711528 heartbeat IPC: 1.20725 cumulative IPC: 1.19279 (Simulation time: 0 hr 13 min 55 sec) 
Heartbeat CPU 0 instructions: 650000003 cycles: 494984653 heartbeat IPC: 1.20873 cumulative IPC: 1.19308 (Simulation time: 0 hr 14 min 7 sec) 
Heartbeat CPU 0 instructions: 660000000 cycles: 503359886 heartbeat IPC: 1.194 cumulative IPC: 1.1931 (Simulation time: 0 hr 14 min 19 sec) 
Heartbeat CPU 0 instructions: 670000002 cycles: 511842646 heartbeat IPC: 1.17886 cumulative IPC: 1.19284 (Simulation time: 0 hr 14 min 31 sec) 
Heartbeat CPU 0 instructions: 680000003 cycles: 520384338 heartbeat IPC: 1.17073 cumulative IPC: 1.19246 (Simulation time: 0 hr 14 min 43 sec) 
Heartbeat CPU 0 instructions: 690000003 cycles: 528862045 heartbeat IPC: 1.17956 cumulative IPC: 1.19224 (Simulation time: 0 hr 14 min 56 sec) 
Heartbeat CPU 0 instructions: 700000000 cycles: 537256722 heartbeat IPC: 1.19123 cumulative IPC: 1.19222 (Simulation time: 0 hr 15 min 8 sec) 
Heartbeat CPU 0 instructions: 710000000 cycles: 545767997 heartbeat IPC: 1.17491 cumulative IPC: 1.19193 (Simulation time: 0 hr 15 min 20 sec) 
Heartbeat CPU 0 instructions: 720000001 cycles: 554398006 heartbeat IPC: 1.15875 cumulative IPC: 1.19138 (Simulation time: 0 hr 15 min 32 sec) 
Heartbeat CPU 0 instructions: 730000002 cycles: 562925181 heartbeat IPC: 1.17272 cumulative IPC: 1.19108 (Simulation time: 0 hr 15 min 44 sec) 
Heartbeat CPU 0 instructions: 740000001 cycles: 571359829 heartbeat IPC: 1.18559 cumulative IPC: 1.19099 (Simulation time: 0 hr 15 min 57 sec) 
Heartbeat CPU 0 instructions: 750000000 cycles: 579892763 heartbeat IPC: 1.17193 cumulative IPC: 1.1907 (Simulation time: 0 hr 16 min 9 sec) 
Heartbeat CPU 0 instructions: 760000000 cycles: 588348082 heartbeat IPC: 1.18269 cumulative IPC: 1.19057 (Simulation time: 0 hr 16 min 21 sec) 
Heartbeat CPU 0 instructions: 770000000 cycles: 596704329 heartbeat IPC: 1.19671 cumulative IPC: 1.19066 (Simulation time: 0 hr 16 min 33 sec) 
Heartbeat CPU 0 instructions: 780000002 cycles: 605140788 heartbeat IPC: 1.18533 cumulative IPC: 1.19059 (Simulation time: 0 hr 16 min 45 sec) 
Heartbeat CPU 0 instructions: 790000003 cycles: 613479953 heartbeat IPC: 1.19916 cumulative IPC: 1.19071 (Simulation time: 0 hr 16 min 57 sec) 
Heartbeat CPU 0 instructions: 800000002 cycles: 621905830 heartbeat IPC: 1.18682 cumulative IPC: 1.19065 (Simulation time: 0 hr 17 min 10 sec) 
Heartbeat CPU 0 instructions: 810000002 cycles: 630323522 heartbeat IPC: 1.18797 cumulative IPC: 1.19062 (Simulation time: 0 hr 17 min 22 sec) 
Heartbeat CPU 0 instructions: 820000000 cycles: 638732806 heartbeat IPC: 1.18916 cumulative IPC: 1.1906 (Simulation time: 0 hr 17 min 34 sec) 
Heartbeat CPU 0 instructions: 830000002 cycles: 647078749 heartbeat IPC: 1.19819 cumulative IPC: 1.1907 (Simulation time: 0 hr 17 min 46 sec) 
Heartbeat CPU 0 instructions: 840000003 cycles: 655511651 heartbeat IPC: 1.18583 cumulative IPC: 1.19063 (Simulation time: 0 hr 17 min 58 sec) 
Heartbeat CPU 0 instructions: 850000001 cycles: 663844971 heartbeat IPC: 1.2 cumulative IPC: 1.19076 (Simulation time: 0 hr 18 min 10 sec) 
Heartbeat CPU 0 instructions: 860000003 cycles: 672278269 heartbeat IPC: 1.18578 cumulative IPC: 1.19069 (Simulation time: 0 hr 18 min 23 sec) 
Heartbeat CPU 0 instructions: 870000000 cycles: 680620646 heartbeat IPC: 1.1987 cumulative IPC: 1.19079 (Simulation time: 0 hr 18 min 35 sec) 
Heartbeat CPU 0 instructions: 880000000 cycles: 689086754 heartbeat IPC: 1.18118 cumulative IPC: 1.19067 (Simulation time: 0 hr 18 min 47 sec) 
Heartbeat CPU 0 instructions: 890000003 cycles: 697434036 heartbeat IPC: 1.198 cumulative IPC: 1.19076 (Simulation time: 0 hr 18 min 59 sec) 
Heartbeat CPU 0 instructions: 900000000 cycles: 705870030 heartbeat IPC: 1.1854 cumulative IPC: 1.19069 (Simulation time: 0 hr 19 min 11 sec) 
Heartbeat CPU 0 instructions: 910000001 cycles: 714347886 heartbeat IPC: 1.17954 cumulative IPC: 1.19056 (Simulation time: 0 hr 19 min 24 sec) 
Heartbeat CPU 0 instructions: 920000001 cycles: 722712135 heartbeat IPC: 1.19556 cumulative IPC: 1.19062 (Simulation time: 0 hr 19 min 36 sec) 
Heartbeat CPU 0 instructions: 930000000 cycles: 731063880 heartbeat IPC: 1.19735 cumulative IPC: 1.1907 (Simulation time: 0 hr 19 min 48 sec) 
Heartbeat CPU 0 instructions: 940000002 cycles: 739536940 heartbeat IPC: 1.18021 cumulative IPC: 1.19057 (Simulation time: 0 hr 20 min 0 sec) 
Heartbeat CPU 0 instructions: 950000001 cycles: 748103763 heartbeat IPC: 1.16729 cumulative IPC: 1.19029 (Simulation time: 0 hr 20 min 12 sec) 
Heartbeat CPU 0 instructions: 960000000 cycles: 756554758 heartbeat IPC: 1.18329 cumulative IPC: 1.19021 (Simulation time: 0 hr 20 min 24 sec) 
Heartbeat CPU 0 instructions: 970000002 cycles: 765030860 heartbeat IPC: 1.17979 cumulative IPC: 1.19009 (Simulation time: 0 hr 20 min 36 sec) 
Heartbeat CPU 0 instructions: 980000000 cycles: 773741597 heartbeat IPC: 1.14801 cumulative IPC: 1.18959 (Simulation time: 0 hr 20 min 49 sec) 
Heartbeat CPU 0 instructions: 990000000 cycles: 782179891 heartbeat IPC: 1.18507 cumulative IPC: 1.18954 (Simulation time: 0 hr 21 min 1 sec) 
Heartbeat CPU 0 instructions: 1000000003 cycles: 790721713 heartbeat IPC: 1.17071 cumulative IPC: 1.18933 (Simulation time: 0 hr 21 min 13 sec) 
Heartbeat CPU 0 instructions: 1010000001 cycles: 799196675 heartbeat IPC: 1.17995 cumulative IPC: 1.18923 (Simulation time: 0 hr 21 min 25 sec) 
Heartbeat CPU 0 instructions: 1020000002 cycles: 807543364 heartbeat IPC: 1.19808 cumulative IPC: 1.18932 (Simulation time: 0 hr 21 min 37 sec) 
Heartbeat CPU 0 instructions: 1030000000 cycles: 815934317 heartbeat IPC: 1.19176 cumulative IPC: 1.18935 (Simulation time: 0 hr 21 min 50 sec) 
Heartbeat CPU 0 instructions: 1040000001 cycles: 824254551 heartbeat IPC: 1.20189 cumulative IPC: 1.18948 (Simulation time: 0 hr 22 min 2 sec) 
Heartbeat CPU 0 instructions: 1050000001 cycles: 832525492 heartbeat IPC: 1.20905 cumulative IPC: 1.18968 (Simulation time: 0 hr 22 min 14 sec) 
Heartbeat CPU 0 instructions: 1060000000 cycles: 840822220 heartbeat IPC: 1.20529 cumulative IPC: 1.18984 (Simulation time: 0 hr 22 min 26 sec) 
Heartbeat CPU 0 instructions: 1070000000 cycles: 849087140 heartbeat IPC: 1.20993 cumulative IPC: 1.19005 (Simulation time: 0 hr 22 min 38 sec) 
Heartbeat CPU 0 instructions: 1080000001 cycles: 857333657 heartbeat IPC: 1.21263 cumulative IPC: 1.19027 (Simulation time: 0 hr 22 min 50 sec) 
Heartbeat CPU 0 instructions: 1090000003 cycles: 865597956 heartbeat IPC: 1.21002 cumulative IPC: 1.19047 (Simulation time: 0 hr 23 min 2 sec) 
Heartbeat CPU 0 instructions: 1100000000 cycles: 873873915 heartbeat IPC: 1.20832 cumulative IPC: 1.19065 (Simulation time: 0 hr 23 min 14 sec) 
Finished CPU 0 instructions: 1000000000 cycles: 839880626 cumulative IPC: 1.19065 (Simulation time: 0 hr 23 min 14 sec) 

ChampSim completed all CPUs

Region of Interest Statistics

CPU 0 cumulative IPC: 1.19065 instructions: 1000000000 cycles: 839880626
L1D TOTAL     ACCESS:  218435010  HIT:  218267990  MISS:     167020
L1D LOAD      ACCESS:  180607609  HIT:  180576733  MISS:      30876
L1D RFO       ACCESS:   37827401  HIT:   37691257  MISS:     136144
L1D PREFETCH  ACCESS:          0  HIT:          0  MISS:          0
L1D WRITEBACK ACCESS:          0  HIT:          0  MISS:          0
L1D PREFETCH  REQUESTED:          0  ISSUED:          0  USEFUL:          0  USELESS:          0
L1D AVERAGE MISS LATENCY: 204.639 cycles
L1I TOTAL     ACCESS:  211038182  HIT:  211038182  MISS:          0
L1I LOAD      ACCESS:  211038182  HIT:  211038182  MISS:          0
L1I RFO       ACCESS:          0  HIT:          0  MISS:          0
L1I PREFETCH  ACCESS:          0  HIT:          0  MISS:          0
L1I WRITEBACK ACCESS:          0  HIT:          0  MISS:          0
L1I PREFETCH  REQUESTED:          0  ISSUED:          0  USEFUL:          0  USELESS:          0
L1I AVERAGE MISS LATENCY: -nan cycles
L2C TOTAL     ACCESS:     303344  HIT:     148956  MISS:     154388
L2C LOAD      ACCESS:      30876  HIT:       5114  MISS:      25762
L2C RFO       ACCESS:     136144  HIT:       7822  MISS:     128322
L2C PREFETCH  ACCESS:          0  HIT:          0  MISS:          0
L2C WRITEBACK ACCESS:     136324  HIT:     136020  MISS:        304
L2C PREFETCH  REQUESTED:          0  ISSUED:          0  USEFUL:          0  USELESS:          0
L2C AVERAGE MISS LATENCY: 207.989 cycles
LLC TOTAL     ACCESS:     282617  HIT:      29347  MISS:     253270
LLC LOAD      ACCESS:      25762  HIT:       2621  MISS:      23141
LLC RFO       ACCESS:     128322  HIT:          0  MISS:     128322
LLC PREFETCH  ACCESS:          0  HIT:          0  MISS:          0
LLC WRITEBACK ACCESS:     128533  HIT:      26726  MISS:     101807
LLC PREFETCH  REQUESTED:          0  ISSUED:          0  USEFUL:          0  USELESS:          0
LLC AVERAGE MISS LATENCY: 102.099 cycles
Major fault: 0 Minor fault: 3176
==============================
Perceptron RRIP Stats:
   Num Updates:          9122
   Num Primary Trains:   81
   Num Secondary Trains: 98
==============================
primary_perceptron #0: 1 1 -3 -1 1 1 -3 7 1 1 3 3 1 -1 3 -11 
secondary_perceptron #0: 4 6 -4 0 2 4 -4 6 4 0 8 4 0 0 4 0 0 0 0 2 -16 


DRAM Statistics
 CHANNEL 0
 RQ ROW_BUFFER_HIT:      28860  ROW_BUFFER_MISS:     122603
 DBUS_CONGESTED:      85691
 WQ ROW_BUFFER_HIT:      29665  ROW_BUFFER_MISS:      99131  FULL:          0

 AVG_CONGESTED_CYCLE: 6

CPU 0 Branch Prediction Accuracy: 86.8535% MPKI: 19.1572 Average ROB Occupancy at Mispredict: 17.1568

Branch types
NOT_BRANCH: 854278635 85.4279%
BRANCH_DIRECT_JUMP: 10863909 1.08639%
BRANCH_INDIRECT: 1041230 0.104123%
BRANCH_CONDITIONAL: 130770005 13.077%
BRANCH_DIRECT_CALL: 1522966 0.152297%
BRANCH_INDIRECT_CALL: 0 0%
BRANCH_RETURN: 1522965 0.152297%
BRANCH_OTHER: 0 0%

