
*** ChampSim Multicore Out-of-Order Simulator ***

Warmup Instructions: 100000000
Simulation Instructions: 1000000000
Number of CPUs: 1
LLC sets: 2048
LLC ways: 16
Off-chip DRAM Size: 4096 MB Channels: 1 Width: 64-bit Data Rate: 3200 MT/s

CPU 0 runs /scratch/user/kevin.weston/dpc3-traces/603.champsimtrace.xz
CPU 0 Bimodal branch predictor
Initialize DRRIP state
Assign rand_sets[0]: 454  LLC: 2048
rand_sets[0]: 454
Assign rand_sets[1]: 1662  LLC: 2048
rand_sets[1]: 1662
Assign rand_sets[2]: 1921  LLC: 2048
rand_sets[2]: 1921
Assign rand_sets[3]: 1131  LLC: 2048
rand_sets[3]: 1131
Assign rand_sets[4]: 331  LLC: 2048
rand_sets[4]: 331
Assign rand_sets[5]: 1531  LLC: 2048
rand_sets[5]: 1531
Assign rand_sets[6]: 482  LLC: 2048
rand_sets[6]: 482
Assign rand_sets[7]: 1275  LLC: 2048
rand_sets[7]: 1275
Assign rand_sets[8]: 1876  LLC: 2048
rand_sets[8]: 1876
Assign rand_sets[9]: 2038  LLC: 2048
rand_sets[9]: 2038
Assign rand_sets[10]: 701  LLC: 2048
rand_sets[10]: 701
Assign rand_sets[11]: 479  LLC: 2048
rand_sets[11]: 479
Assign rand_sets[12]: 892  LLC: 2048
rand_sets[12]: 892
Assign rand_sets[13]: 1820  LLC: 2048
rand_sets[13]: 1820
Assign rand_sets[14]: 1505  LLC: 2048
rand_sets[14]: 1505
Assign rand_sets[15]: 1159  LLC: 2048
rand_sets[15]: 1159
Assign rand_sets[16]: 513  LLC: 2048
rand_sets[16]: 513
Assign rand_sets[17]: 703  LLC: 2048
rand_sets[17]: 703
Assign rand_sets[18]: 561  LLC: 2048
rand_sets[18]: 561
Assign rand_sets[19]: 990  LLC: 2048
rand_sets[19]: 990
Assign rand_sets[20]: 342  LLC: 2048
rand_sets[20]: 342
Assign rand_sets[21]: 882  LLC: 2048
rand_sets[21]: 882
Assign rand_sets[22]: 15  LLC: 2048
rand_sets[22]: 15
Assign rand_sets[23]: 71  LLC: 2048
rand_sets[23]: 71
Assign rand_sets[24]: 1127  LLC: 2048
rand_sets[24]: 1127
Assign rand_sets[25]: 1382  LLC: 2048
rand_sets[25]: 1382
Assign rand_sets[26]: 647  LLC: 2048
rand_sets[26]: 647
Assign rand_sets[27]: 857  LLC: 2048
rand_sets[27]: 857
Assign rand_sets[28]: 1450  LLC: 2048
rand_sets[28]: 1450
Assign rand_sets[29]: 1160  LLC: 2048
rand_sets[29]: 1160
Assign rand_sets[30]: 1852  LLC: 2048
rand_sets[30]: 1852
Assign rand_sets[31]: 1881  LLC: 2048
rand_sets[31]: 1881
Assign rand_sets[32]: 1770  LLC: 2048
rand_sets[32]: 1770
Assign rand_sets[33]: 1622  LLC: 2048
rand_sets[33]: 1622
Assign rand_sets[34]: 275  LLC: 2048
rand_sets[34]: 275
Assign rand_sets[35]: 635  LLC: 2048
rand_sets[35]: 635
Assign rand_sets[36]: 466  LLC: 2048
rand_sets[36]: 466
Assign rand_sets[37]: 1413  LLC: 2048
rand_sets[37]: 1413
Assign rand_sets[38]: 417  LLC: 2048
rand_sets[38]: 417
Assign rand_sets[39]: 472  LLC: 2048
rand_sets[39]: 472
Assign rand_sets[40]: 1340  LLC: 2048
rand_sets[40]: 1340
Assign rand_sets[41]: 852  LLC: 2048
rand_sets[41]: 852
Assign rand_sets[42]: 1365  LLC: 2048
rand_sets[42]: 1365
Assign rand_sets[43]: 47  LLC: 2048
rand_sets[43]: 47
Assign rand_sets[44]: 823  LLC: 2048
rand_sets[44]: 823
Assign rand_sets[45]: 686  LLC: 2048
rand_sets[45]: 686
Assign rand_sets[46]: 1637  LLC: 2048
rand_sets[46]: 1637
Assign rand_sets[47]: 1115  LLC: 2048
rand_sets[47]: 1115
Assign rand_sets[48]: 986  LLC: 2048
rand_sets[48]: 986
Assign rand_sets[49]: 258  LLC: 2048
rand_sets[49]: 258
Assign rand_sets[50]: 633  LLC: 2048
rand_sets[50]: 633
Assign rand_sets[51]: 920  LLC: 2048
rand_sets[51]: 920
Assign rand_sets[52]: 204  LLC: 2048
rand_sets[52]: 204
Assign rand_sets[53]: 227  LLC: 2048
rand_sets[53]: 227
Assign rand_sets[54]: 1818  LLC: 2048
rand_sets[54]: 1818
Assign rand_sets[55]: 886  LLC: 2048
rand_sets[55]: 886
Assign rand_sets[56]: 1422  LLC: 2048
rand_sets[56]: 1422
Assign rand_sets[57]: 607  LLC: 2048
rand_sets[57]: 607
Assign rand_sets[58]: 217  LLC: 2048
rand_sets[58]: 217
Assign rand_sets[59]: 1945  LLC: 2048
rand_sets[59]: 1945
Assign rand_sets[60]: 143  LLC: 2048
rand_sets[60]: 143
Assign rand_sets[61]: 1311  LLC: 2048
rand_sets[61]: 1311
Assign rand_sets[62]: 319  LLC: 2048
rand_sets[62]: 319
Assign rand_sets[63]: 1846  LLC: 2048
rand_sets[63]: 1846
Heartbeat CPU 0 instructions: 10000000 cycles: 3409066 heartbeat IPC: 2.93335 cumulative IPC: 2.93335 (Simulation time: 0 hr 0 min 16 sec) 
Heartbeat CPU 0 instructions: 20000003 cycles: 6807784 heartbeat IPC: 2.94229 cumulative IPC: 2.93781 (Simulation time: 0 hr 0 min 35 sec) 
Heartbeat CPU 0 instructions: 30000002 cycles: 10206664 heartbeat IPC: 2.94215 cumulative IPC: 2.93926 (Simulation time: 0 hr 0 min 54 sec) 
Heartbeat CPU 0 instructions: 40000002 cycles: 13618411 heartbeat IPC: 2.93105 cumulative IPC: 2.9372 (Simulation time: 0 hr 1 min 11 sec) 
Heartbeat CPU 0 instructions: 50000003 cycles: 17027550 heartbeat IPC: 2.93329 cumulative IPC: 2.93642 (Simulation time: 0 hr 1 min 28 sec) 
Heartbeat CPU 0 instructions: 60000003 cycles: 20427740 heartbeat IPC: 2.94101 cumulative IPC: 2.93718 (Simulation time: 0 hr 1 min 45 sec) 
Heartbeat CPU 0 instructions: 70000002 cycles: 23820424 heartbeat IPC: 2.94752 cumulative IPC: 2.93865 (Simulation time: 0 hr 2 min 2 sec) 
Heartbeat CPU 0 instructions: 80000000 cycles: 27213998 heartbeat IPC: 2.94675 cumulative IPC: 2.93966 (Simulation time: 0 hr 2 min 18 sec) 
Heartbeat CPU 0 instructions: 90000003 cycles: 30612827 heartbeat IPC: 2.94219 cumulative IPC: 2.93994 (Simulation time: 0 hr 2 min 35 sec) 
Heartbeat CPU 0 instructions: 100000000 cycles: 33993295 heartbeat IPC: 2.95817 cumulative IPC: 2.94176 (Simulation time: 0 hr 2 min 52 sec) 

Warmup complete CPU 0 instructions: 100000004 cycles: 33993296 (Simulation time: 0 hr 2 min 52 sec) 

Heartbeat CPU 0 instructions: 110000000 cycles: 42330007 heartbeat IPC: 1.19951 cumulative IPC: 1.19951 (Simulation time: 0 hr 3 min 4 sec) 
Heartbeat CPU 0 instructions: 120000002 cycles: 50704647 heartbeat IPC: 1.19408 cumulative IPC: 1.19679 (Simulation time: 0 hr 3 min 15 sec) 
Heartbeat CPU 0 instructions: 130000001 cycles: 59172810 heartbeat IPC: 1.18089 cumulative IPC: 1.19144 (Simulation time: 0 hr 3 min 27 sec) 
Heartbeat CPU 0 instructions: 140000002 cycles: 67800140 heartbeat IPC: 1.15911 cumulative IPC: 1.18319 (Simulation time: 0 hr 3 min 39 sec) 
Heartbeat CPU 0 instructions: 150000001 cycles: 76273500 heartbeat IPC: 1.18017 cumulative IPC: 1.18259 (Simulation time: 0 hr 3 min 51 sec) 
Heartbeat CPU 0 instructions: 160000000 cycles: 84685163 heartbeat IPC: 1.18883 cumulative IPC: 1.18362 (Simulation time: 0 hr 4 min 3 sec) 
Heartbeat CPU 0 instructions: 170000000 cycles: 93255736 heartbeat IPC: 1.16678 cumulative IPC: 1.18119 (Simulation time: 0 hr 4 min 15 sec) 
Heartbeat CPU 0 instructions: 180000000 cycles: 101827537 heartbeat IPC: 1.16662 cumulative IPC: 1.17935 (Simulation time: 0 hr 4 min 27 sec) 
Heartbeat CPU 0 instructions: 190000000 cycles: 110362978 heartbeat IPC: 1.17159 cumulative IPC: 1.17848 (Simulation time: 0 hr 4 min 39 sec) 
Heartbeat CPU 0 instructions: 200000000 cycles: 118701404 heartbeat IPC: 1.19927 cumulative IPC: 1.18052 (Simulation time: 0 hr 4 min 51 sec) 
Heartbeat CPU 0 instructions: 210000001 cycles: 127136250 heartbeat IPC: 1.18556 cumulative IPC: 1.18098 (Simulation time: 0 hr 5 min 3 sec) 
Heartbeat CPU 0 instructions: 220000000 cycles: 135629509 heartbeat IPC: 1.1774 cumulative IPC: 1.18068 (Simulation time: 0 hr 5 min 15 sec) 
Heartbeat CPU 0 instructions: 230000001 cycles: 144055507 heartbeat IPC: 1.1868 cumulative IPC: 1.18115 (Simulation time: 0 hr 5 min 27 sec) 
Heartbeat CPU 0 instructions: 240000000 cycles: 152506913 heartbeat IPC: 1.18323 cumulative IPC: 1.1813 (Simulation time: 0 hr 5 min 39 sec) 
Heartbeat CPU 0 instructions: 250000000 cycles: 160881820 heartbeat IPC: 1.19404 cumulative IPC: 1.18214 (Simulation time: 0 hr 5 min 51 sec) 
Heartbeat CPU 0 instructions: 260000001 cycles: 169290639 heartbeat IPC: 1.18923 cumulative IPC: 1.18258 (Simulation time: 0 hr 6 min 3 sec) 
Heartbeat CPU 0 instructions: 270000002 cycles: 177737108 heartbeat IPC: 1.18393 cumulative IPC: 1.18266 (Simulation time: 0 hr 6 min 15 sec) 
Heartbeat CPU 0 instructions: 280000003 cycles: 186068657 heartbeat IPC: 1.20026 cumulative IPC: 1.18362 (Simulation time: 0 hr 6 min 26 sec) 
Heartbeat CPU 0 instructions: 290000000 cycles: 194486127 heartbeat IPC: 1.18801 cumulative IPC: 1.18385 (Simulation time: 0 hr 6 min 38 sec) 
Heartbeat CPU 0 instructions: 300000002 cycles: 202922820 heartbeat IPC: 1.1853 cumulative IPC: 1.18393 (Simulation time: 0 hr 6 min 50 sec) 
Heartbeat CPU 0 instructions: 310000001 cycles: 211259787 heartbeat IPC: 1.19948 cumulative IPC: 1.18466 (Simulation time: 0 hr 7 min 2 sec) 
Heartbeat CPU 0 instructions: 320000002 cycles: 219718880 heartbeat IPC: 1.18216 cumulative IPC: 1.18454 (Simulation time: 0 hr 7 min 14 sec) 
Heartbeat CPU 0 instructions: 330000000 cycles: 228190257 heartbeat IPC: 1.18045 cumulative IPC: 1.18436 (Simulation time: 0 hr 7 min 26 sec) 
Heartbeat CPU 0 instructions: 340000000 cycles: 236679139 heartbeat IPC: 1.17801 cumulative IPC: 1.1841 (Simulation time: 0 hr 7 min 38 sec) 
Heartbeat CPU 0 instructions: 350000002 cycles: 245112481 heartbeat IPC: 1.18577 cumulative IPC: 1.18417 (Simulation time: 0 hr 7 min 50 sec) 
Heartbeat CPU 0 instructions: 360000000 cycles: 253623831 heartbeat IPC: 1.1749 cumulative IPC: 1.18381 (Simulation time: 0 hr 8 min 2 sec) 
Heartbeat CPU 0 instructions: 370000001 cycles: 261973962 heartbeat IPC: 1.19759 cumulative IPC: 1.18431 (Simulation time: 0 hr 8 min 14 sec) 
Heartbeat CPU 0 instructions: 380000000 cycles: 270522704 heartbeat IPC: 1.16976 cumulative IPC: 1.18379 (Simulation time: 0 hr 8 min 26 sec) 
Heartbeat CPU 0 instructions: 390000003 cycles: 278943515 heartbeat IPC: 1.18753 cumulative IPC: 1.18391 (Simulation time: 0 hr 8 min 38 sec) 
Heartbeat CPU 0 instructions: 400000001 cycles: 287529127 heartbeat IPC: 1.16474 cumulative IPC: 1.18326 (Simulation time: 0 hr 8 min 50 sec) 
Heartbeat CPU 0 instructions: 410000001 cycles: 296039481 heartbeat IPC: 1.17504 cumulative IPC: 1.183 (Simulation time: 0 hr 9 min 2 sec) 
Heartbeat CPU 0 instructions: 420000000 cycles: 304508730 heartbeat IPC: 1.18074 cumulative IPC: 1.18293 (Simulation time: 0 hr 9 min 14 sec) 
Heartbeat CPU 0 instructions: 430000002 cycles: 312984350 heartbeat IPC: 1.17985 cumulative IPC: 1.18283 (Simulation time: 0 hr 9 min 26 sec) 
Heartbeat CPU 0 instructions: 440000000 cycles: 321542777 heartbeat IPC: 1.16844 cumulative IPC: 1.18241 (Simulation time: 0 hr 9 min 38 sec) 
Heartbeat CPU 0 instructions: 450000003 cycles: 329925075 heartbeat IPC: 1.19299 cumulative IPC: 1.18271 (Simulation time: 0 hr 9 min 50 sec) 
Heartbeat CPU 0 instructions: 460000000 cycles: 338303402 heartbeat IPC: 1.19356 cumulative IPC: 1.183 (Simulation time: 0 hr 10 min 1 sec) 
Heartbeat CPU 0 instructions: 470000000 cycles: 346571559 heartbeat IPC: 1.20946 cumulative IPC: 1.1837 (Simulation time: 0 hr 10 min 13 sec) 
Heartbeat CPU 0 instructions: 480000001 cycles: 354890842 heartbeat IPC: 1.20203 cumulative IPC: 1.18418 (Simulation time: 0 hr 10 min 25 sec) 
Heartbeat CPU 0 instructions: 490000000 cycles: 363160458 heartbeat IPC: 1.20925 cumulative IPC: 1.18481 (Simulation time: 0 hr 10 min 36 sec) 
Heartbeat CPU 0 instructions: 500000001 cycles: 371429419 heartbeat IPC: 1.20934 cumulative IPC: 1.18541 (Simulation time: 0 hr 10 min 48 sec) 
Heartbeat CPU 0 instructions: 510000001 cycles: 379690782 heartbeat IPC: 1.21045 cumulative IPC: 1.18601 (Simulation time: 0 hr 11 min 0 sec) 
Heartbeat CPU 0 instructions: 520000002 cycles: 387956136 heartbeat IPC: 1.20987 cumulative IPC: 1.18657 (Simulation time: 0 hr 11 min 12 sec) 
Heartbeat CPU 0 instructions: 530000003 cycles: 396234874 heartbeat IPC: 1.20791 cumulative IPC: 1.18705 (Simulation time: 0 hr 11 min 29 sec) 
Heartbeat CPU 0 instructions: 540000000 cycles: 404468185 heartbeat IPC: 1.21458 cumulative IPC: 1.18766 (Simulation time: 0 hr 11 min 44 sec) 
Heartbeat CPU 0 instructions: 550000000 cycles: 412727579 heartbeat IPC: 1.21074 cumulative IPC: 1.18817 (Simulation time: 0 hr 11 min 56 sec) 
Heartbeat CPU 0 instructions: 560000002 cycles: 420991207 heartbeat IPC: 1.21012 cumulative IPC: 1.18864 (Simulation time: 0 hr 12 min 8 sec) 
Heartbeat CPU 0 instructions: 570000001 cycles: 429253967 heartbeat IPC: 1.21025 cumulative IPC: 1.18909 (Simulation time: 0 hr 12 min 19 sec) 
Heartbeat CPU 0 instructions: 580000000 cycles: 437501979 heartbeat IPC: 1.21241 cumulative IPC: 1.18957 (Simulation time: 0 hr 12 min 31 sec) 
Heartbeat CPU 0 instructions: 590000001 cycles: 445771951 heartbeat IPC: 1.20919 cumulative IPC: 1.18996 (Simulation time: 0 hr 12 min 43 sec) 
Heartbeat CPU 0 instructions: 600000003 cycles: 454040025 heartbeat IPC: 1.20947 cumulative IPC: 1.19034 (Simulation time: 0 hr 12 min 54 sec) 
Heartbeat CPU 0 instructions: 610000000 cycles: 462296401 heartbeat IPC: 1.21118 cumulative IPC: 1.19075 (Simulation time: 0 hr 13 min 6 sec) 
Heartbeat CPU 0 instructions: 620000003 cycles: 470573100 heartbeat IPC: 1.20821 cumulative IPC: 1.19108 (Simulation time: 0 hr 13 min 17 sec) 
Heartbeat CPU 0 instructions: 630000001 cycles: 478850929 heartbeat IPC: 1.20805 cumulative IPC: 1.19139 (Simulation time: 0 hr 13 min 29 sec) 
Heartbeat CPU 0 instructions: 640000003 cycles: 487134539 heartbeat IPC: 1.2072 cumulative IPC: 1.19168 (Simulation time: 0 hr 13 min 41 sec) 
Heartbeat CPU 0 instructions: 650000003 cycles: 495408525 heartbeat IPC: 1.20861 cumulative IPC: 1.19198 (Simulation time: 0 hr 13 min 52 sec) 
Heartbeat CPU 0 instructions: 660000000 cycles: 503784520 heartbeat IPC: 1.19389 cumulative IPC: 1.19202 (Simulation time: 0 hr 14 min 4 sec) 
Heartbeat CPU 0 instructions: 670000002 cycles: 512266182 heartbeat IPC: 1.17901 cumulative IPC: 1.19179 (Simulation time: 0 hr 14 min 16 sec) 
Heartbeat CPU 0 instructions: 680000003 cycles: 520807315 heartbeat IPC: 1.1708 cumulative IPC: 1.19142 (Simulation time: 0 hr 14 min 28 sec) 
Heartbeat CPU 0 instructions: 690000003 cycles: 529283273 heartbeat IPC: 1.17981 cumulative IPC: 1.19122 (Simulation time: 0 hr 14 min 40 sec) 
Heartbeat CPU 0 instructions: 700000000 cycles: 537682557 heartbeat IPC: 1.19058 cumulative IPC: 1.19121 (Simulation time: 0 hr 14 min 52 sec) 
Heartbeat CPU 0 instructions: 710000000 cycles: 546205409 heartbeat IPC: 1.17332 cumulative IPC: 1.19091 (Simulation time: 0 hr 15 min 4 sec) 
Heartbeat CPU 0 instructions: 720000001 cycles: 554845618 heartbeat IPC: 1.15738 cumulative IPC: 1.19036 (Simulation time: 0 hr 15 min 16 sec) 
Heartbeat CPU 0 instructions: 730000002 cycles: 563378315 heartbeat IPC: 1.17196 cumulative IPC: 1.19006 (Simulation time: 0 hr 15 min 28 sec) 
Heartbeat CPU 0 instructions: 740000001 cycles: 571814964 heartbeat IPC: 1.1853 cumulative IPC: 1.18999 (Simulation time: 0 hr 15 min 40 sec) 
Heartbeat CPU 0 instructions: 750000000 cycles: 580353122 heartbeat IPC: 1.17121 cumulative IPC: 1.18969 (Simulation time: 0 hr 15 min 52 sec) 
Heartbeat CPU 0 instructions: 760000000 cycles: 588810866 heartbeat IPC: 1.18235 cumulative IPC: 1.18958 (Simulation time: 0 hr 16 min 4 sec) 
Heartbeat CPU 0 instructions: 770000000 cycles: 597169195 heartbeat IPC: 1.19641 cumulative IPC: 1.18968 (Simulation time: 0 hr 16 min 16 sec) 
Heartbeat CPU 0 instructions: 780000002 cycles: 605602873 heartbeat IPC: 1.18572 cumulative IPC: 1.18962 (Simulation time: 0 hr 16 min 28 sec) 
Heartbeat CPU 0 instructions: 790000003 cycles: 613945578 heartbeat IPC: 1.19865 cumulative IPC: 1.18975 (Simulation time: 0 hr 16 min 40 sec) 
Heartbeat CPU 0 instructions: 800000002 cycles: 622371964 heartbeat IPC: 1.18675 cumulative IPC: 1.18971 (Simulation time: 0 hr 16 min 52 sec) 
Heartbeat CPU 0 instructions: 810000002 cycles: 630789606 heartbeat IPC: 1.18798 cumulative IPC: 1.18969 (Simulation time: 0 hr 17 min 4 sec) 
Heartbeat CPU 0 instructions: 820000000 cycles: 639198082 heartbeat IPC: 1.18928 cumulative IPC: 1.18968 (Simulation time: 0 hr 17 min 15 sec) 
Heartbeat CPU 0 instructions: 830000002 cycles: 647544738 heartbeat IPC: 1.19808 cumulative IPC: 1.18979 (Simulation time: 0 hr 17 min 27 sec) 
Heartbeat CPU 0 instructions: 840000003 cycles: 655977230 heartbeat IPC: 1.18589 cumulative IPC: 1.18974 (Simulation time: 0 hr 17 min 39 sec) 
Heartbeat CPU 0 instructions: 850000001 cycles: 664311889 heartbeat IPC: 1.19981 cumulative IPC: 1.18987 (Simulation time: 0 hr 17 min 51 sec) 
Heartbeat CPU 0 instructions: 860000003 cycles: 672745225 heartbeat IPC: 1.18577 cumulative IPC: 1.18982 (Simulation time: 0 hr 18 min 3 sec) 
Heartbeat CPU 0 instructions: 870000000 cycles: 681088955 heartbeat IPC: 1.1985 cumulative IPC: 1.18993 (Simulation time: 0 hr 18 min 15 sec) 
Heartbeat CPU 0 instructions: 880000000 cycles: 689553457 heartbeat IPC: 1.1814 cumulative IPC: 1.18982 (Simulation time: 0 hr 18 min 27 sec) 
Heartbeat CPU 0 instructions: 890000003 cycles: 697901055 heartbeat IPC: 1.19795 cumulative IPC: 1.18992 (Simulation time: 0 hr 18 min 39 sec) 
Heartbeat CPU 0 instructions: 900000000 cycles: 706335988 heartbeat IPC: 1.18555 cumulative IPC: 1.18987 (Simulation time: 0 hr 18 min 51 sec) 
Heartbeat CPU 0 instructions: 910000001 cycles: 714813987 heartbeat IPC: 1.17952 cumulative IPC: 1.18974 (Simulation time: 0 hr 19 min 3 sec) 
Heartbeat CPU 0 instructions: 920000001 cycles: 723178235 heartbeat IPC: 1.19556 cumulative IPC: 1.18981 (Simulation time: 0 hr 19 min 15 sec) 
Heartbeat CPU 0 instructions: 930000000 cycles: 731529952 heartbeat IPC: 1.19736 cumulative IPC: 1.1899 (Simulation time: 0 hr 19 min 27 sec) 
Heartbeat CPU 0 instructions: 940000002 cycles: 740002520 heartbeat IPC: 1.18028 cumulative IPC: 1.18979 (Simulation time: 0 hr 19 min 39 sec) 
Heartbeat CPU 0 instructions: 950000001 cycles: 748571171 heartbeat IPC: 1.16704 cumulative IPC: 1.18951 (Simulation time: 0 hr 19 min 51 sec) 
Heartbeat CPU 0 instructions: 960000000 cycles: 757020284 heartbeat IPC: 1.18356 cumulative IPC: 1.18944 (Simulation time: 0 hr 20 min 3 sec) 
Heartbeat CPU 0 instructions: 970000002 cycles: 765496683 heartbeat IPC: 1.17975 cumulative IPC: 1.18933 (Simulation time: 0 hr 20 min 15 sec) 
Heartbeat CPU 0 instructions: 980000000 cycles: 774204347 heartbeat IPC: 1.14841 cumulative IPC: 1.18885 (Simulation time: 0 hr 20 min 27 sec) 
Heartbeat CPU 0 instructions: 990000000 cycles: 782642132 heartbeat IPC: 1.18515 cumulative IPC: 1.18881 (Simulation time: 0 hr 20 min 39 sec) 
Heartbeat CPU 0 instructions: 1000000003 cycles: 791183236 heartbeat IPC: 1.17081 cumulative IPC: 1.18861 (Simulation time: 0 hr 20 min 51 sec) 
Heartbeat CPU 0 instructions: 1010000001 cycles: 799656792 heartbeat IPC: 1.18014 cumulative IPC: 1.18851 (Simulation time: 0 hr 21 min 3 sec) 
Heartbeat CPU 0 instructions: 1020000002 cycles: 808007091 heartbeat IPC: 1.19756 cumulative IPC: 1.18861 (Simulation time: 0 hr 21 min 15 sec) 
Heartbeat CPU 0 instructions: 1030000000 cycles: 816402071 heartbeat IPC: 1.19119 cumulative IPC: 1.18864 (Simulation time: 0 hr 21 min 27 sec) 
Heartbeat CPU 0 instructions: 1040000001 cycles: 824724998 heartbeat IPC: 1.2015 cumulative IPC: 1.18877 (Simulation time: 0 hr 21 min 39 sec) 
Heartbeat CPU 0 instructions: 1050000001 cycles: 832995939 heartbeat IPC: 1.20905 cumulative IPC: 1.18898 (Simulation time: 0 hr 21 min 51 sec) 
Heartbeat CPU 0 instructions: 1060000000 cycles: 841292779 heartbeat IPC: 1.20528 cumulative IPC: 1.18915 (Simulation time: 0 hr 22 min 2 sec) 
Heartbeat CPU 0 instructions: 1070000000 cycles: 849559732 heartbeat IPC: 1.20964 cumulative IPC: 1.18936 (Simulation time: 0 hr 22 min 14 sec) 
Heartbeat CPU 0 instructions: 1080000001 cycles: 857809746 heartbeat IPC: 1.21212 cumulative IPC: 1.18959 (Simulation time: 0 hr 22 min 26 sec) 
Heartbeat CPU 0 instructions: 1090000003 cycles: 866074145 heartbeat IPC: 1.21001 cumulative IPC: 1.18979 (Simulation time: 0 hr 22 min 38 sec) 
Heartbeat CPU 0 instructions: 1100000000 cycles: 874350105 heartbeat IPC: 1.20832 cumulative IPC: 1.18997 (Simulation time: 0 hr 22 min 49 sec) 
Finished CPU 0 instructions: 1000000000 cycles: 840356816 cumulative IPC: 1.18997 (Simulation time: 0 hr 22 min 49 sec) 

ChampSim completed all CPUs

Region of Interest Statistics

CPU 0 cumulative IPC: 1.18997 instructions: 1000000000 cycles: 840356816
L1D TOTAL     ACCESS:  218435373  HIT:  218268352  MISS:     167021
L1D LOAD      ACCESS:  180607671  HIT:  180576796  MISS:      30875
L1D RFO       ACCESS:   37827702  HIT:   37691556  MISS:     136146
L1D PREFETCH  ACCESS:          0  HIT:          0  MISS:          0
L1D WRITEBACK ACCESS:          0  HIT:          0  MISS:          0
L1D PREFETCH  REQUESTED:          0  ISSUED:          0  USEFUL:          0  USELESS:          0
L1D AVERAGE MISS LATENCY: 212.874 cycles
L1I TOTAL     ACCESS:  211045822  HIT:  211045822  MISS:          0
L1I LOAD      ACCESS:  211045822  HIT:  211045822  MISS:          0
L1I RFO       ACCESS:          0  HIT:          0  MISS:          0
L1I PREFETCH  ACCESS:          0  HIT:          0  MISS:          0
L1I WRITEBACK ACCESS:          0  HIT:          0  MISS:          0
L1I PREFETCH  REQUESTED:          0  ISSUED:          0  USEFUL:          0  USELESS:          0
L1I AVERAGE MISS LATENCY: -nan cycles
L2C TOTAL     ACCESS:     303345  HIT:     148932  MISS:     154413
L2C LOAD      ACCESS:      30875  HIT:       5109  MISS:      25766
L2C RFO       ACCESS:     136146  HIT:       7820  MISS:     128326
L2C PREFETCH  ACCESS:          0  HIT:          0  MISS:          0
L2C WRITEBACK ACCESS:     136324  HIT:     136003  MISS:        321
L2C PREFETCH  REQUESTED:          0  ISSUED:          0  USEFUL:          0  USELESS:          0
L2C AVERAGE MISS LATENCY: 216.869 cycles
LLC TOTAL     ACCESS:     282673  HIT:     126667  MISS:     156006
LLC LOAD      ACCESS:      25766  HIT:         93  MISS:      25673
LLC RFO       ACCESS:     128326  HIT:          4  MISS:     128322
LLC PREFETCH  ACCESS:          0  HIT:          0  MISS:          0
LLC WRITEBACK ACCESS:     128581  HIT:     126570  MISS:       2011
LLC PREFETCH  REQUESTED:          0  ISSUED:          0  USEFUL:          0  USELESS:          0
LLC AVERAGE MISS LATENCY: 174.651 cycles
Major fault: 0 Minor fault: 3176

DRAM Statistics
 CHANNEL 0
 RQ ROW_BUFFER_HIT:      20721  ROW_BUFFER_MISS:     133274
 DBUS_CONGESTED:      86721
 WQ ROW_BUFFER_HIT:      20307  ROW_BUFFER_MISS:     107298  FULL:          0

 AVG_CONGESTED_CYCLE: 6

CPU 0 Branch Prediction Accuracy: 86.8535% MPKI: 19.1572 Average ROB Occupancy at Mispredict: 17.157

Branch types
NOT_BRANCH: 854278635 85.4279%
BRANCH_DIRECT_JUMP: 10863909 1.08639%
BRANCH_INDIRECT: 1041230 0.104123%
BRANCH_CONDITIONAL: 130770005 13.077%
BRANCH_DIRECT_CALL: 1522966 0.152297%
BRANCH_INDIRECT_CALL: 0 0%
BRANCH_RETURN: 1522965 0.152297%
BRANCH_OTHER: 0 0%

