
*** ChampSim Multicore Out-of-Order Simulator ***

Warmup Instructions: 100000000
Simulation Instructions: 1000000000
Number of CPUs: 1
LLC sets: 2048
LLC ways: 16
Off-chip DRAM Size: 4096 MB Channels: 1 Width: 64-bit Data Rate: 3200 MT/s

CPU 0 runs /scratch/user/kevin.weston/dpc3-traces/605.champsimtrace.xz
CPU 0 Bimodal branch predictor
Per-line RRPV Initialized
PRRIP State Initialized
Assign SAMPLER_SET[0]: 454  LLC: 2048
SAMPLER_SET[0]: 454
Assign SAMPLER_SET[1]: 1662  LLC: 2048
SAMPLER_SET[1]: 1662
Assign SAMPLER_SET[2]: 1921  LLC: 2048
SAMPLER_SET[2]: 1921
Assign SAMPLER_SET[3]: 1131  LLC: 2048
SAMPLER_SET[3]: 1131
Assign SAMPLER_SET[4]: 331  LLC: 2048
SAMPLER_SET[4]: 331
Assign SAMPLER_SET[5]: 1531  LLC: 2048
SAMPLER_SET[5]: 1531
Assign SAMPLER_SET[6]: 482  LLC: 2048
SAMPLER_SET[6]: 482
Assign SAMPLER_SET[7]: 1275  LLC: 2048
SAMPLER_SET[7]: 1275
Assign SAMPLER_SET[8]: 1876  LLC: 2048
SAMPLER_SET[8]: 1876
Assign SAMPLER_SET[9]: 2038  LLC: 2048
SAMPLER_SET[9]: 2038
Assign SAMPLER_SET[10]: 701  LLC: 2048
SAMPLER_SET[10]: 701
Assign SAMPLER_SET[11]: 479  LLC: 2048
SAMPLER_SET[11]: 479
Assign SAMPLER_SET[12]: 892  LLC: 2048
SAMPLER_SET[12]: 892
Assign SAMPLER_SET[13]: 1820  LLC: 2048
SAMPLER_SET[13]: 1820
Assign SAMPLER_SET[14]: 1505  LLC: 2048
SAMPLER_SET[14]: 1505
Assign SAMPLER_SET[15]: 1159  LLC: 2048
SAMPLER_SET[15]: 1159
Assign SAMPLER_SET[16]: 513  LLC: 2048
SAMPLER_SET[16]: 513
Assign SAMPLER_SET[17]: 703  LLC: 2048
SAMPLER_SET[17]: 703
Assign SAMPLER_SET[18]: 561  LLC: 2048
SAMPLER_SET[18]: 561
Assign SAMPLER_SET[19]: 990  LLC: 2048
SAMPLER_SET[19]: 990
Assign SAMPLER_SET[20]: 342  LLC: 2048
SAMPLER_SET[20]: 342
Assign SAMPLER_SET[21]: 882  LLC: 2048
SAMPLER_SET[21]: 882
Assign SAMPLER_SET[22]: 15  LLC: 2048
SAMPLER_SET[22]: 15
Assign SAMPLER_SET[23]: 71  LLC: 2048
SAMPLER_SET[23]: 71
Assign SAMPLER_SET[24]: 1127  LLC: 2048
SAMPLER_SET[24]: 1127
Assign SAMPLER_SET[25]: 1382  LLC: 2048
SAMPLER_SET[25]: 1382
Assign SAMPLER_SET[26]: 647  LLC: 2048
SAMPLER_SET[26]: 647
Assign SAMPLER_SET[27]: 857  LLC: 2048
SAMPLER_SET[27]: 857
Assign SAMPLER_SET[28]: 1450  LLC: 2048
SAMPLER_SET[28]: 1450
Assign SAMPLER_SET[29]: 1160  LLC: 2048
SAMPLER_SET[29]: 1160
Assign SAMPLER_SET[30]: 1852  LLC: 2048
SAMPLER_SET[30]: 1852
Assign SAMPLER_SET[31]: 1881  LLC: 2048
SAMPLER_SET[31]: 1881
Assign SAMPLER_SET[32]: 1770  LLC: 2048
SAMPLER_SET[32]: 1770
Assign SAMPLER_SET[33]: 1622  LLC: 2048
SAMPLER_SET[33]: 1622
Assign SAMPLER_SET[34]: 275  LLC: 2048
SAMPLER_SET[34]: 275
Assign SAMPLER_SET[35]: 635  LLC: 2048
SAMPLER_SET[35]: 635
Assign SAMPLER_SET[36]: 466  LLC: 2048
SAMPLER_SET[36]: 466
Assign SAMPLER_SET[37]: 1413  LLC: 2048
SAMPLER_SET[37]: 1413
Assign SAMPLER_SET[38]: 417  LLC: 2048
SAMPLER_SET[38]: 417
Assign SAMPLER_SET[39]: 472  LLC: 2048
SAMPLER_SET[39]: 472
Assign SAMPLER_SET[40]: 1340  LLC: 2048
SAMPLER_SET[40]: 1340
Assign SAMPLER_SET[41]: 852  LLC: 2048
SAMPLER_SET[41]: 852
Assign SAMPLER_SET[42]: 1365  LLC: 2048
SAMPLER_SET[42]: 1365
Assign SAMPLER_SET[43]: 47  LLC: 2048
SAMPLER_SET[43]: 47
Assign SAMPLER_SET[44]: 823  LLC: 2048
SAMPLER_SET[44]: 823
Assign SAMPLER_SET[45]: 686  LLC: 2048
SAMPLER_SET[45]: 686
Assign SAMPLER_SET[46]: 1637  LLC: 2048
SAMPLER_SET[46]: 1637
Assign SAMPLER_SET[47]: 1115  LLC: 2048
SAMPLER_SET[47]: 1115
Assign SAMPLER_SET[48]: 986  LLC: 2048
SAMPLER_SET[48]: 986
Assign SAMPLER_SET[49]: 258  LLC: 2048
SAMPLER_SET[49]: 258
Assign SAMPLER_SET[50]: 633  LLC: 2048
SAMPLER_SET[50]: 633
Assign SAMPLER_SET[51]: 920  LLC: 2048
SAMPLER_SET[51]: 920
Assign SAMPLER_SET[52]: 204  LLC: 2048
SAMPLER_SET[52]: 204
Assign SAMPLER_SET[53]: 227  LLC: 2048
SAMPLER_SET[53]: 227
Assign SAMPLER_SET[54]: 1818  LLC: 2048
SAMPLER_SET[54]: 1818
Assign SAMPLER_SET[55]: 886  LLC: 2048
SAMPLER_SET[55]: 886
Assign SAMPLER_SET[56]: 1422  LLC: 2048
SAMPLER_SET[56]: 1422
Assign SAMPLER_SET[57]: 607  LLC: 2048
SAMPLER_SET[57]: 607
Assign SAMPLER_SET[58]: 217  LLC: 2048
SAMPLER_SET[58]: 217
Assign SAMPLER_SET[59]: 1945  LLC: 2048
SAMPLER_SET[59]: 1945
Assign SAMPLER_SET[60]: 143  LLC: 2048
SAMPLER_SET[60]: 143
Assign SAMPLER_SET[61]: 1311  LLC: 2048
SAMPLER_SET[61]: 1311
Assign SAMPLER_SET[62]: 319  LLC: 2048
SAMPLER_SET[62]: 319
Assign SAMPLER_SET[63]: 1846  LLC: 2048
SAMPLER_SET[63]: 1846
Assign SAMPLER_SET[64]: 238  LLC: 2048
SAMPLER_SET[64]: 238
Assign SAMPLER_SET[65]: 67  LLC: 2048
SAMPLER_SET[65]: 67
Assign SAMPLER_SET[66]: 1912  LLC: 2048
SAMPLER_SET[66]: 1912
Assign SAMPLER_SET[67]: 1613  LLC: 2048
SAMPLER_SET[67]: 1613
Assign SAMPLER_SET[68]: 1293  LLC: 2048
SAMPLER_SET[68]: 1293
Assign SAMPLER_SET[69]: 1018  LLC: 2048
SAMPLER_SET[69]: 1018
Assign SAMPLER_SET[70]: 1982  LLC: 2048
SAMPLER_SET[70]: 1982
Assign SAMPLER_SET[71]: 1702  LLC: 2048
SAMPLER_SET[71]: 1702
Assign SAMPLER_SET[72]: 1498  LLC: 2048
SAMPLER_SET[72]: 1498
Assign SAMPLER_SET[73]: 228  LLC: 2048
SAMPLER_SET[73]: 228
Assign SAMPLER_SET[74]: 1414  LLC: 2048
SAMPLER_SET[74]: 1414
Assign SAMPLER_SET[75]: 1166  LLC: 2048
SAMPLER_SET[75]: 1166
Assign SAMPLER_SET[76]: 732  LLC: 2048
SAMPLER_SET[76]: 732
Assign SAMPLER_SET[77]: 297  LLC: 2048
SAMPLER_SET[77]: 297
Assign SAMPLER_SET[78]: 1133  LLC: 2048
SAMPLER_SET[78]: 1133
Assign SAMPLER_SET[79]: 846  LLC: 2048
SAMPLER_SET[79]: 846
Assign SAMPLER_SET[80]: 767  LLC: 2048
SAMPLER_SET[80]: 767
Assign SAMPLER_SET[81]: 1878  LLC: 2048
SAMPLER_SET[81]: 1878
Assign SAMPLER_SET[82]: 993  LLC: 2048
SAMPLER_SET[82]: 993
Assign SAMPLER_SET[83]: 1392  LLC: 2048
SAMPLER_SET[83]: 1392
Assign SAMPLER_SET[84]: 1568  LLC: 2048
SAMPLER_SET[84]: 1568
Assign SAMPLER_SET[85]: 1787  LLC: 2048
SAMPLER_SET[85]: 1787
Assign SAMPLER_SET[86]: 399  LLC: 2048
SAMPLER_SET[86]: 399
Assign SAMPLER_SET[87]: 1201  LLC: 2048
SAMPLER_SET[87]: 1201
Assign SAMPLER_SET[88]: 856  LLC: 2048
SAMPLER_SET[88]: 856
Assign SAMPLER_SET[89]: 773  LLC: 2048
SAMPLER_SET[89]: 773
Assign SAMPLER_SET[90]: 1680  LLC: 2048
SAMPLER_SET[90]: 1680
Assign SAMPLER_SET[91]: 1477  LLC: 2048
SAMPLER_SET[91]: 1477
Assign SAMPLER_SET[92]: 9  LLC: 2048
SAMPLER_SET[92]: 9
Assign SAMPLER_SET[93]: 1500  LLC: 2048
SAMPLER_SET[93]: 1500
Assign SAMPLER_SET[94]: 851  LLC: 2048
SAMPLER_SET[94]: 851
Assign SAMPLER_SET[95]: 973  LLC: 2048
SAMPLER_SET[95]: 973
Assign SAMPLER_SET[96]: 938  LLC: 2048
SAMPLER_SET[96]: 938
Assign SAMPLER_SET[97]: 1851  LLC: 2048
SAMPLER_SET[97]: 1851
Assign SAMPLER_SET[98]: 1608  LLC: 2048
SAMPLER_SET[98]: 1608
Assign SAMPLER_SET[99]: 1945  LLC: 2048
Assign SAMPLER_SET[99]: 1106  LLC: 2048
SAMPLER_SET[99]: 1106
Assign SAMPLER_SET[100]: 979  LLC: 2048
SAMPLER_SET[100]: 979
Assign SAMPLER_SET[101]: 338  LLC: 2048
SAMPLER_SET[101]: 338
Assign SAMPLER_SET[102]: 1693  LLC: 2048
SAMPLER_SET[102]: 1693
Assign SAMPLER_SET[103]: 6  LLC: 2048
SAMPLER_SET[103]: 6
Assign SAMPLER_SET[104]: 671  LLC: 2048
SAMPLER_SET[104]: 671
Assign SAMPLER_SET[105]: 490  LLC: 2048
SAMPLER_SET[105]: 490
Assign SAMPLER_SET[106]: 1461  LLC: 2048
SAMPLER_SET[106]: 1461
Assign SAMPLER_SET[107]: 1730  LLC: 2048
SAMPLER_SET[107]: 1730
Assign SAMPLER_SET[108]: 1030  LLC: 2048
SAMPLER_SET[108]: 1030
Assign SAMPLER_SET[109]: 19  LLC: 2048
SAMPLER_SET[109]: 19
Assign SAMPLER_SET[110]: 920  LLC: 2048
Assign SAMPLER_SET[110]: 329  LLC: 2048
SAMPLER_SET[110]: 329
Assign SAMPLER_SET[111]: 1714  LLC: 2048
SAMPLER_SET[111]: 1714
Assign SAMPLER_SET[112]: 1  LLC: 2048
SAMPLER_SET[112]: 1
Assign SAMPLER_SET[113]: 1822  LLC: 2048
SAMPLER_SET[113]: 1822
Assign SAMPLER_SET[114]: 172  LLC: 2048
SAMPLER_SET[114]: 172
Assign SAMPLER_SET[115]: 1586  LLC: 2048
SAMPLER_SET[115]: 1586
Assign SAMPLER_SET[116]: 648  LLC: 2048
SAMPLER_SET[116]: 648
Assign SAMPLER_SET[117]: 1329  LLC: 2048
SAMPLER_SET[117]: 1329
Assign SAMPLER_SET[118]: 668  LLC: 2048
SAMPLER_SET[118]: 668
Assign SAMPLER_SET[119]: 1874  LLC: 2048
SAMPLER_SET[119]: 1874
Assign SAMPLER_SET[120]: 70  LLC: 2048
SAMPLER_SET[120]: 70
Assign SAMPLER_SET[121]: 661  LLC: 2048
SAMPLER_SET[121]: 661
Assign SAMPLER_SET[122]: 1649  LLC: 2048
SAMPLER_SET[122]: 1649
Assign SAMPLER_SET[123]: 1590  LLC: 2048
SAMPLER_SET[123]: 1590
Assign SAMPLER_SET[124]: 911  LLC: 2048
SAMPLER_SET[124]: 911
Assign SAMPLER_SET[125]: 1367  LLC: 2048
SAMPLER_SET[125]: 1367
Assign SAMPLER_SET[126]: 1782  LLC: 2048
SAMPLER_SET[126]: 1782
Assign SAMPLER_SET[127]: 569  LLC: 2048
SAMPLER_SET[127]: 569
Heartbeat CPU 0 instructions: 10000000 cycles: 4113678 heartbeat IPC: 2.43091 cumulative IPC: 2.43091 (Simulation time: 0 hr 0 min 25 sec) 
Heartbeat CPU 0 instructions: 20000000 cycles: 8235593 heartbeat IPC: 2.42606 cumulative IPC: 2.42848 (Simulation time: 0 hr 0 min 48 sec) 
Heartbeat CPU 0 instructions: 30000002 cycles: 12342769 heartbeat IPC: 2.43476 cumulative IPC: 2.43057 (Simulation time: 0 hr 1 min 12 sec) 
Heartbeat CPU 0 instructions: 40000000 cycles: 16454386 heartbeat IPC: 2.43213 cumulative IPC: 2.43096 (Simulation time: 0 hr 1 min 36 sec) 
Heartbeat CPU 0 instructions: 50000000 cycles: 20561371 heartbeat IPC: 2.43488 cumulative IPC: 2.43174 (Simulation time: 0 hr 2 min 1 sec) 
Heartbeat CPU 0 instructions: 60000003 cycles: 24669188 heartbeat IPC: 2.43438 cumulative IPC: 2.43218 (Simulation time: 0 hr 2 min 25 sec) 
Heartbeat CPU 0 instructions: 70000003 cycles: 28782100 heartbeat IPC: 2.43137 cumulative IPC: 2.43207 (Simulation time: 0 hr 2 min 49 sec) 
Heartbeat CPU 0 instructions: 80000000 cycles: 32893975 heartbeat IPC: 2.43198 cumulative IPC: 2.43206 (Simulation time: 0 hr 3 min 13 sec) 
Heartbeat CPU 0 instructions: 90000000 cycles: 37012450 heartbeat IPC: 2.42808 cumulative IPC: 2.43161 (Simulation time: 0 hr 3 min 37 sec) 
Heartbeat CPU 0 instructions: 100000000 cycles: 41104023 heartbeat IPC: 2.44405 cumulative IPC: 2.43285 (Simulation time: 0 hr 4 min 1 sec) 

Warmup complete CPU 0 instructions: 100000002 cycles: 41104024 (Simulation time: 0 hr 4 min 1 sec) 

Heartbeat CPU 0 instructions: 110000000 cycles: 69199128 heartbeat IPC: 0.355934 cumulative IPC: 0.355934 (Simulation time: 0 hr 4 min 21 sec) 
Heartbeat CPU 0 instructions: 120000000 cycles: 96922495 heartbeat IPC: 0.360707 cumulative IPC: 0.358304 (Simulation time: 0 hr 4 min 41 sec) 
Heartbeat CPU 0 instructions: 130000000 cycles: 124838585 heartbeat IPC: 0.358216 cumulative IPC: 0.358275 (Simulation time: 0 hr 5 min 2 sec) 
Heartbeat CPU 0 instructions: 140000002 cycles: 153330214 heartbeat IPC: 0.35098 cumulative IPC: 0.356423 (Simulation time: 0 hr 5 min 22 sec) 
Heartbeat CPU 0 instructions: 150000000 cycles: 181581761 heartbeat IPC: 0.353963 cumulative IPC: 0.355928 (Simulation time: 0 hr 5 min 42 sec) 
Heartbeat CPU 0 instructions: 160000000 cycles: 210171102 heartbeat IPC: 0.349781 cumulative IPC: 0.354889 (Simulation time: 0 hr 6 min 2 sec) 
Heartbeat CPU 0 instructions: 170000000 cycles: 239251824 heartbeat IPC: 0.34387 cumulative IPC: 0.353272 (Simulation time: 0 hr 6 min 22 sec) 
Heartbeat CPU 0 instructions: 180000001 cycles: 267760564 heartbeat IPC: 0.35077 cumulative IPC: 0.352957 (Simulation time: 0 hr 6 min 43 sec) 
Heartbeat CPU 0 instructions: 190000002 cycles: 296348909 heartbeat IPC: 0.349793 cumulative IPC: 0.352603 (Simulation time: 0 hr 7 min 3 sec) 
Heartbeat CPU 0 instructions: 200000000 cycles: 325025100 heartbeat IPC: 0.348721 cumulative IPC: 0.352211 (Simulation time: 0 hr 7 min 23 sec) 
Heartbeat CPU 0 instructions: 210000003 cycles: 353411311 heartbeat IPC: 0.352284 cumulative IPC: 0.352217 (Simulation time: 0 hr 7 min 43 sec) 
Heartbeat CPU 0 instructions: 220000000 cycles: 381544112 heartbeat IPC: 0.355457 cumulative IPC: 0.352485 (Simulation time: 0 hr 8 min 4 sec) 
Heartbeat CPU 0 instructions: 230000000 cycles: 411481210 heartbeat IPC: 0.334034 cumulative IPC: 0.350994 (Simulation time: 0 hr 8 min 25 sec) 
Heartbeat CPU 0 instructions: 240000000 cycles: 439912171 heartbeat IPC: 0.351729 cumulative IPC: 0.351046 (Simulation time: 0 hr 8 min 45 sec) 
Heartbeat CPU 0 instructions: 250000001 cycles: 468824855 heartbeat IPC: 0.345869 cumulative IPC: 0.350696 (Simulation time: 0 hr 9 min 5 sec) 
Heartbeat CPU 0 instructions: 260000002 cycles: 497366251 heartbeat IPC: 0.350368 cumulative IPC: 0.350676 (Simulation time: 0 hr 9 min 25 sec) 
Heartbeat CPU 0 instructions: 270000000 cycles: 525456470 heartbeat IPC: 0.355996 cumulative IPC: 0.350984 (Simulation time: 0 hr 9 min 45 sec) 
Heartbeat CPU 0 instructions: 280000001 cycles: 553714568 heartbeat IPC: 0.353881 cumulative IPC: 0.351144 (Simulation time: 0 hr 10 min 6 sec) 
Heartbeat CPU 0 instructions: 290000003 cycles: 581314343 heartbeat IPC: 0.362322 cumulative IPC: 0.351715 (Simulation time: 0 hr 10 min 25 sec) 
Heartbeat CPU 0 instructions: 300000000 cycles: 609153034 heartbeat IPC: 0.359212 cumulative IPC: 0.352082 (Simulation time: 0 hr 10 min 46 sec) 
Heartbeat CPU 0 instructions: 310000000 cycles: 635465594 heartbeat IPC: 0.380047 cumulative IPC: 0.35332 (Simulation time: 0 hr 11 min 5 sec) 
Heartbeat CPU 0 instructions: 320000001 cycles: 662779715 heartbeat IPC: 0.366111 cumulative IPC: 0.353882 (Simulation time: 0 hr 11 min 26 sec) 
Heartbeat CPU 0 instructions: 330000000 cycles: 690143972 heartbeat IPC: 0.36544 cumulative IPC: 0.35437 (Simulation time: 0 hr 11 min 46 sec) 
Heartbeat CPU 0 instructions: 340000003 cycles: 717215891 heartbeat IPC: 0.369387 cumulative IPC: 0.354971 (Simulation time: 0 hr 12 min 6 sec) 
Heartbeat CPU 0 instructions: 350000003 cycles: 744479457 heartbeat IPC: 0.36679 cumulative IPC: 0.355429 (Simulation time: 0 hr 12 min 26 sec) 
Heartbeat CPU 0 instructions: 360000003 cycles: 771386371 heartbeat IPC: 0.371652 cumulative IPC: 0.356027 (Simulation time: 0 hr 12 min 46 sec) 
Heartbeat CPU 0 instructions: 370000002 cycles: 798374018 heartbeat IPC: 0.37054 cumulative IPC: 0.356544 (Simulation time: 0 hr 13 min 6 sec) 
Heartbeat CPU 0 instructions: 380000001 cycles: 825687601 heartbeat IPC: 0.366118 cumulative IPC: 0.356877 (Simulation time: 0 hr 13 min 26 sec) 
Heartbeat CPU 0 instructions: 390000000 cycles: 852742154 heartbeat IPC: 0.369624 cumulative IPC: 0.357302 (Simulation time: 0 hr 13 min 46 sec) 
Heartbeat CPU 0 instructions: 400000001 cycles: 879635105 heartbeat IPC: 0.371845 cumulative IPC: 0.357768 (Simulation time: 0 hr 14 min 6 sec) 
Heartbeat CPU 0 instructions: 410000000 cycles: 907003745 heartbeat IPC: 0.365382 cumulative IPC: 0.358009 (Simulation time: 0 hr 14 min 26 sec) 
Heartbeat CPU 0 instructions: 420000003 cycles: 933847613 heartbeat IPC: 0.372525 cumulative IPC: 0.358446 (Simulation time: 0 hr 14 min 46 sec) 
Heartbeat CPU 0 instructions: 430000000 cycles: 960719201 heartbeat IPC: 0.37214 cumulative IPC: 0.358846 (Simulation time: 0 hr 15 min 6 sec) 
Heartbeat CPU 0 instructions: 440000000 cycles: 987547273 heartbeat IPC: 0.372744 cumulative IPC: 0.35924 (Simulation time: 0 hr 15 min 26 sec) 
Heartbeat CPU 0 instructions: 450000002 cycles: 1014980722 heartbeat IPC: 0.364519 cumulative IPC: 0.359388 (Simulation time: 0 hr 15 min 46 sec) 
Heartbeat CPU 0 instructions: 460000001 cycles: 1042483518 heartbeat IPC: 0.363599 cumulative IPC: 0.359504 (Simulation time: 0 hr 16 min 6 sec) 
Heartbeat CPU 0 instructions: 470000003 cycles: 1070754729 heartbeat IPC: 0.353717 cumulative IPC: 0.359345 (Simulation time: 0 hr 16 min 26 sec) 
Heartbeat CPU 0 instructions: 480000000 cycles: 1098644192 heartbeat IPC: 0.358558 cumulative IPC: 0.359324 (Simulation time: 0 hr 16 min 46 sec) 
Heartbeat CPU 0 instructions: 490000003 cycles: 1126825038 heartbeat IPC: 0.354851 cumulative IPC: 0.359208 (Simulation time: 0 hr 17 min 6 sec) 
Heartbeat CPU 0 instructions: 500000000 cycles: 1155519316 heartbeat IPC: 0.348501 cumulative IPC: 0.358933 (Simulation time: 0 hr 17 min 26 sec) 
Heartbeat CPU 0 instructions: 510000001 cycles: 1182930133 heartbeat IPC: 0.36482 cumulative IPC: 0.359074 (Simulation time: 0 hr 17 min 46 sec) 
Heartbeat CPU 0 instructions: 520000000 cycles: 1211184677 heartbeat IPC: 0.353925 cumulative IPC: 0.35895 (Simulation time: 0 hr 18 min 6 sec) 
Heartbeat CPU 0 instructions: 530000003 cycles: 1239778422 heartbeat IPC: 0.349727 cumulative IPC: 0.35873 (Simulation time: 0 hr 18 min 27 sec) 
Heartbeat CPU 0 instructions: 540000001 cycles: 1268324234 heartbeat IPC: 0.350314 cumulative IPC: 0.358534 (Simulation time: 0 hr 18 min 47 sec) 
Heartbeat CPU 0 instructions: 550000000 cycles: 1296894991 heartbeat IPC: 0.350008 cumulative IPC: 0.35834 (Simulation time: 0 hr 19 min 8 sec) 
Heartbeat CPU 0 instructions: 560000000 cycles: 1325562384 heartbeat IPC: 0.348828 cumulative IPC: 0.358128 (Simulation time: 0 hr 19 min 28 sec) 
Heartbeat CPU 0 instructions: 570000000 cycles: 1362095500 heartbeat IPC: 0.273724 cumulative IPC: 0.355793 (Simulation time: 0 hr 19 min 50 sec) 
Heartbeat CPU 0 instructions: 580000001 cycles: 1391343157 heartbeat IPC: 0.341908 cumulative IPC: 0.355493 (Simulation time: 0 hr 20 min 11 sec) 
Heartbeat CPU 0 instructions: 590000000 cycles: 1420871530 heartbeat IPC: 0.338657 cumulative IPC: 0.355132 (Simulation time: 0 hr 20 min 32 sec) 
Heartbeat CPU 0 instructions: 600000000 cycles: 1449955926 heartbeat IPC: 0.343827 cumulative IPC: 0.354899 (Simulation time: 0 hr 20 min 52 sec) 
Heartbeat CPU 0 instructions: 610000001 cycles: 1479136316 heartbeat IPC: 0.342696 cumulative IPC: 0.354651 (Simulation time: 0 hr 21 min 13 sec) 
Heartbeat CPU 0 instructions: 620000001 cycles: 1508233587 heartbeat IPC: 0.343675 cumulative IPC: 0.354434 (Simulation time: 0 hr 21 min 34 sec) 
Heartbeat CPU 0 instructions: 630000001 cycles: 1537015901 heartbeat IPC: 0.347436 cumulative IPC: 0.354299 (Simulation time: 0 hr 21 min 55 sec) 
Heartbeat CPU 0 instructions: 640000002 cycles: 1565935471 heartbeat IPC: 0.345787 cumulative IPC: 0.354138 (Simulation time: 0 hr 22 min 15 sec) 
Heartbeat CPU 0 instructions: 650000000 cycles: 1594416302 heartbeat IPC: 0.351113 cumulative IPC: 0.354082 (Simulation time: 0 hr 22 min 36 sec) 
Heartbeat CPU 0 instructions: 660000000 cycles: 1623157334 heartbeat IPC: 0.347935 cumulative IPC: 0.35397 (Simulation time: 0 hr 22 min 56 sec) 
Heartbeat CPU 0 instructions: 670000000 cycles: 1651835905 heartbeat IPC: 0.348692 cumulative IPC: 0.353876 (Simulation time: 0 hr 23 min 17 sec) 
Heartbeat CPU 0 instructions: 680000000 cycles: 1681175343 heartbeat IPC: 0.340838 cumulative IPC: 0.353643 (Simulation time: 0 hr 23 min 38 sec) 
Heartbeat CPU 0 instructions: 690000002 cycles: 1709958063 heartbeat IPC: 0.347431 cumulative IPC: 0.353536 (Simulation time: 0 hr 23 min 58 sec) 
Heartbeat CPU 0 instructions: 700000000 cycles: 1739403856 heartbeat IPC: 0.339607 cumulative IPC: 0.353294 (Simulation time: 0 hr 24 min 19 sec) 
Heartbeat CPU 0 instructions: 710000000 cycles: 1767851791 heartbeat IPC: 0.351519 cumulative IPC: 0.353265 (Simulation time: 0 hr 24 min 40 sec) 
Heartbeat CPU 0 instructions: 720000000 cycles: 1796465969 heartbeat IPC: 0.349477 cumulative IPC: 0.353204 (Simulation time: 0 hr 25 min 1 sec) 
Heartbeat CPU 0 instructions: 730000000 cycles: 1825549973 heartbeat IPC: 0.343832 cumulative IPC: 0.353051 (Simulation time: 0 hr 25 min 22 sec) 
Heartbeat CPU 0 instructions: 740000002 cycles: 1854367280 heartbeat IPC: 0.347014 cumulative IPC: 0.352955 (Simulation time: 0 hr 25 min 42 sec) 
Heartbeat CPU 0 instructions: 750000001 cycles: 1882638972 heartbeat IPC: 0.353711 cumulative IPC: 0.352966 (Simulation time: 0 hr 26 min 3 sec) 
Heartbeat CPU 0 instructions: 760000002 cycles: 1911616969 heartbeat IPC: 0.345089 cumulative IPC: 0.352844 (Simulation time: 0 hr 26 min 24 sec) 
Heartbeat CPU 0 instructions: 770000000 cycles: 1940683735 heartbeat IPC: 0.344035 cumulative IPC: 0.35271 (Simulation time: 0 hr 26 min 45 sec) 
Heartbeat CPU 0 instructions: 780000002 cycles: 1969677538 heartbeat IPC: 0.344901 cumulative IPC: 0.352592 (Simulation time: 0 hr 27 min 6 sec) 
Heartbeat CPU 0 instructions: 790000001 cycles: 1998722039 heartbeat IPC: 0.344299 cumulative IPC: 0.352469 (Simulation time: 0 hr 27 min 26 sec) 
Heartbeat CPU 0 instructions: 800000000 cycles: 2029402533 heartbeat IPC: 0.32594 cumulative IPC: 0.35206 (Simulation time: 0 hr 27 min 48 sec) 
Heartbeat CPU 0 instructions: 810000003 cycles: 2059120286 heartbeat IPC: 0.336499 cumulative IPC: 0.351831 (Simulation time: 0 hr 28 min 9 sec) 
Heartbeat CPU 0 instructions: 820000002 cycles: 2089019574 heartbeat IPC: 0.334456 cumulative IPC: 0.351577 (Simulation time: 0 hr 28 min 31 sec) 
Heartbeat CPU 0 instructions: 830000000 cycles: 2119379346 heartbeat IPC: 0.329383 cumulative IPC: 0.351253 (Simulation time: 0 hr 28 min 52 sec) 
Heartbeat CPU 0 instructions: 840000001 cycles: 2149729104 heartbeat IPC: 0.329492 cumulative IPC: 0.35094 (Simulation time: 0 hr 29 min 14 sec) 
Heartbeat CPU 0 instructions: 850000001 cycles: 2181136111 heartbeat IPC: 0.3184 cumulative IPC: 0.350462 (Simulation time: 0 hr 29 min 36 sec) 
Heartbeat CPU 0 instructions: 860000002 cycles: 2212412595 heartbeat IPC: 0.319729 cumulative IPC: 0.350019 (Simulation time: 0 hr 29 min 59 sec) 
Heartbeat CPU 0 instructions: 870000001 cycles: 2242954367 heartbeat IPC: 0.32742 cumulative IPC: 0.349706 (Simulation time: 0 hr 30 min 21 sec) 
Heartbeat CPU 0 instructions: 880000000 cycles: 2273523816 heartbeat IPC: 0.327124 cumulative IPC: 0.349397 (Simulation time: 0 hr 30 min 43 sec) 
Heartbeat CPU 0 instructions: 890000000 cycles: 2303816250 heartbeat IPC: 0.330115 cumulative IPC: 0.349139 (Simulation time: 0 hr 31 min 5 sec) 
Heartbeat CPU 0 instructions: 900000000 cycles: 2334044301 heartbeat IPC: 0.330819 cumulative IPC: 0.348897 (Simulation time: 0 hr 31 min 27 sec) 
Heartbeat CPU 0 instructions: 910000003 cycles: 2364334735 heartbeat IPC: 0.330137 cumulative IPC: 0.348652 (Simulation time: 0 hr 31 min 50 sec) 
Heartbeat CPU 0 instructions: 920000001 cycles: 2395057308 heartbeat IPC: 0.325494 cumulative IPC: 0.34835 (Simulation time: 0 hr 32 min 12 sec) 
Heartbeat CPU 0 instructions: 930000003 cycles: 2425521337 heartbeat IPC: 0.328256 cumulative IPC: 0.348093 (Simulation time: 0 hr 32 min 34 sec) 
Heartbeat CPU 0 instructions: 940000000 cycles: 2456496783 heartbeat IPC: 0.322836 cumulative IPC: 0.34777 (Simulation time: 0 hr 32 min 57 sec) 
Heartbeat CPU 0 instructions: 950000003 cycles: 2487677456 heartbeat IPC: 0.320712 cumulative IPC: 0.347425 (Simulation time: 0 hr 33 min 19 sec) 
Heartbeat CPU 0 instructions: 960000001 cycles: 2517755504 heartbeat IPC: 0.332468 cumulative IPC: 0.347243 (Simulation time: 0 hr 33 min 41 sec) 
Heartbeat CPU 0 instructions: 970000002 cycles: 2548779409 heartbeat IPC: 0.322332 cumulative IPC: 0.346935 (Simulation time: 0 hr 34 min 4 sec) 
Heartbeat CPU 0 instructions: 980000003 cycles: 2579661679 heartbeat IPC: 0.32381 cumulative IPC: 0.346654 (Simulation time: 0 hr 34 min 26 sec) 
Heartbeat CPU 0 instructions: 990000000 cycles: 2610018853 heartbeat IPC: 0.329411 cumulative IPC: 0.34645 (Simulation time: 0 hr 34 min 48 sec) 
Heartbeat CPU 0 instructions: 1000000002 cycles: 2640755327 heartbeat IPC: 0.325346 cumulative IPC: 0.3462 (Simulation time: 0 hr 35 min 11 sec) 
Heartbeat CPU 0 instructions: 1010000002 cycles: 2670776695 heartbeat IPC: 0.333096 cumulative IPC: 0.346051 (Simulation time: 0 hr 35 min 33 sec) 
Heartbeat CPU 0 instructions: 1020000002 cycles: 2701211568 heartbeat IPC: 0.32857 cumulative IPC: 0.345851 (Simulation time: 0 hr 35 min 55 sec) 
Heartbeat CPU 0 instructions: 1030000003 cycles: 2731121235 heartbeat IPC: 0.33434 cumulative IPC: 0.345723 (Simulation time: 0 hr 36 min 16 sec) 
Heartbeat CPU 0 instructions: 1040000001 cycles: 2761178106 heartbeat IPC: 0.332703 cumulative IPC: 0.345579 (Simulation time: 0 hr 36 min 38 sec) 
Heartbeat CPU 0 instructions: 1050000001 cycles: 2791162423 heartbeat IPC: 0.333508 cumulative IPC: 0.345447 (Simulation time: 0 hr 36 min 59 sec) 
Heartbeat CPU 0 instructions: 1060000000 cycles: 2821130580 heartbeat IPC: 0.333687 cumulative IPC: 0.34532 (Simulation time: 0 hr 37 min 20 sec) 
Heartbeat CPU 0 instructions: 1070000003 cycles: 2851049240 heartbeat IPC: 0.33424 cumulative IPC: 0.345202 (Simulation time: 0 hr 37 min 42 sec) 
Heartbeat CPU 0 instructions: 1080000000 cycles: 2880963124 heartbeat IPC: 0.334293 cumulative IPC: 0.345088 (Simulation time: 0 hr 38 min 3 sec) 
Heartbeat CPU 0 instructions: 1090000002 cycles: 2911157466 heartbeat IPC: 0.331188 cumulative IPC: 0.344941 (Simulation time: 0 hr 38 min 25 sec) 
Heartbeat CPU 0 instructions: 1100000000 cycles: 2941198145 heartbeat IPC: 0.332882 cumulative IPC: 0.344816 (Simulation time: 0 hr 38 min 47 sec) 
Finished CPU 0 instructions: 1000000000 cycles: 2900094122 cumulative IPC: 0.344816 (Simulation time: 0 hr 38 min 47 sec) 

ChampSim completed all CPUs

Region of Interest Statistics

CPU 0 cumulative IPC: 0.344816 instructions: 1000000000 cycles: 2900094122
L1D TOTAL     ACCESS:  372188203  HIT:  329071849  MISS:   43116354
L1D LOAD      ACCESS:  263317975  HIT:  224097652  MISS:   39220323
L1D RFO       ACCESS:  108870228  HIT:  104974197  MISS:    3896031
L1D PREFETCH  ACCESS:          0  HIT:          0  MISS:          0
L1D WRITEBACK ACCESS:          0  HIT:          0  MISS:          0
L1D PREFETCH  REQUESTED:          0  ISSUED:          0  USEFUL:          0  USELESS:          0
L1D AVERAGE MISS LATENCY: 79.4177 cycles
L1I TOTAL     ACCESS:  194976737  HIT:  194976735  MISS:          2
L1I LOAD      ACCESS:  194976737  HIT:  194976735  MISS:          2
L1I RFO       ACCESS:          0  HIT:          0  MISS:          0
L1I PREFETCH  ACCESS:          0  HIT:          0  MISS:          0
L1I WRITEBACK ACCESS:          0  HIT:          0  MISS:          0
L1I PREFETCH  REQUESTED:          0  ISSUED:          0  USEFUL:          0  USELESS:          0
L1I AVERAGE MISS LATENCY: 235 cycles
L2C TOTAL     ACCESS:   49086014  HIT:   18177965  MISS:   30908049
L2C LOAD      ACCESS:   39220211  HIT:   11193612  MISS:   28026599
L2C RFO       ACCESS:    3895971  HIT:    1020737  MISS:    2875234
L2C PREFETCH  ACCESS:          0  HIT:          0  MISS:          0
L2C WRITEBACK ACCESS:    5969832  HIT:    5963616  MISS:       6216
L2C PREFETCH  REQUESTED:          0  ISSUED:          0  USEFUL:          0  USELESS:          0
L2C AVERAGE MISS LATENCY: 93.7058 cycles
LLC TOTAL     ACCESS:   35159009  HIT:   22687333  MISS:   12471676
LLC LOAD      ACCESS:   28026487  HIT:   15610903  MISS:   12415584
LLC RFO       ACCESS:    2875122  HIT:    2867145  MISS:       7977
LLC PREFETCH  ACCESS:          0  HIT:          0  MISS:          0
LLC WRITEBACK ACCESS:    4257400  HIT:    4209285  MISS:      48115
LLC PREFETCH  REQUESTED:          0  ISSUED:          0  USEFUL:          0  USELESS:          0
LLC AVERAGE MISS LATENCY: 131.72 cycles
Major fault: 0 Minor fault: 151086
==============================
Perceptron RRIP Stats:
   Num Updates:          2048062
   Num Primary Trains:   71478
   Num Secondary Trains: 70901
==============================
primary_perceptron #0: -4 2 -4 4 -2 2 8 0 4 2 2 2 0 -2 2 -20 
secondary_perceptron #0: -5 3 -5 5 -3 5 11 -3 3 1 3 -1 1 -3 -1 -5 -3 1 -1 -5 -27 


DRAM Statistics
 CHANNEL 0
 RQ ROW_BUFFER_HIT:    6764812  ROW_BUFFER_MISS:    5658744
 DBUS_CONGESTED:    1844009
 WQ ROW_BUFFER_HIT:      39980  ROW_BUFFER_MISS:      67903  FULL:          0

 AVG_CONGESTED_CYCLE: 5

CPU 0 Branch Prediction Accuracy: 88.8495% MPKI: 28.0155 Average ROB Occupancy at Mispredict: 14.8605

Branch types
NOT_BRANCH: 748751390 74.8751%
BRANCH_DIRECT_JUMP: 26840018 2.684%
BRANCH_INDIRECT: 0 0%
BRANCH_CONDITIONAL: 170587008 17.0587%
BRANCH_DIRECT_CALL: 25420991 2.5421%
BRANCH_INDIRECT_CALL: 1489642 0.148964%
BRANCH_RETURN: 26910634 2.69106%
BRANCH_OTHER: 0 0%

