
*** ChampSim Multicore Out-of-Order Simulator ***

Warmup Instructions: 100000000
Simulation Instructions: 1000000000
Number of CPUs: 1
LLC sets: 2048
LLC ways: 16
Off-chip DRAM Size: 4096 MB Channels: 1 Width: 64-bit Data Rate: 3200 MT/s

CPU 0 runs /scratch/user/kevin.weston/dpc3-traces/605.champsimtrace.xz
CPU 0 Bimodal branch predictor
Per-line RRPV Initialized
PRRIP State Initialized
Assign SAMPLER_SET[0]: 454  LLC: 2048
SAMPLER_SET[0]: 454
Assign SAMPLER_SET[1]: 1662  LLC: 2048
SAMPLER_SET[1]: 1662
Assign SAMPLER_SET[2]: 1921  LLC: 2048
SAMPLER_SET[2]: 1921
Assign SAMPLER_SET[3]: 1131  LLC: 2048
SAMPLER_SET[3]: 1131
Assign SAMPLER_SET[4]: 331  LLC: 2048
SAMPLER_SET[4]: 331
Assign SAMPLER_SET[5]: 1531  LLC: 2048
SAMPLER_SET[5]: 1531
Assign SAMPLER_SET[6]: 482  LLC: 2048
SAMPLER_SET[6]: 482
Assign SAMPLER_SET[7]: 1275  LLC: 2048
SAMPLER_SET[7]: 1275
Assign SAMPLER_SET[8]: 1876  LLC: 2048
SAMPLER_SET[8]: 1876
Assign SAMPLER_SET[9]: 2038  LLC: 2048
SAMPLER_SET[9]: 2038
Assign SAMPLER_SET[10]: 701  LLC: 2048
SAMPLER_SET[10]: 701
Assign SAMPLER_SET[11]: 479  LLC: 2048
SAMPLER_SET[11]: 479
Assign SAMPLER_SET[12]: 892  LLC: 2048
SAMPLER_SET[12]: 892
Assign SAMPLER_SET[13]: 1820  LLC: 2048
SAMPLER_SET[13]: 1820
Assign SAMPLER_SET[14]: 1505  LLC: 2048
SAMPLER_SET[14]: 1505
Assign SAMPLER_SET[15]: 1159  LLC: 2048
SAMPLER_SET[15]: 1159
Assign SAMPLER_SET[16]: 513  LLC: 2048
SAMPLER_SET[16]: 513
Assign SAMPLER_SET[17]: 703  LLC: 2048
SAMPLER_SET[17]: 703
Assign SAMPLER_SET[18]: 561  LLC: 2048
SAMPLER_SET[18]: 561
Assign SAMPLER_SET[19]: 990  LLC: 2048
SAMPLER_SET[19]: 990
Assign SAMPLER_SET[20]: 342  LLC: 2048
SAMPLER_SET[20]: 342
Assign SAMPLER_SET[21]: 882  LLC: 2048
SAMPLER_SET[21]: 882
Assign SAMPLER_SET[22]: 15  LLC: 2048
SAMPLER_SET[22]: 15
Assign SAMPLER_SET[23]: 71  LLC: 2048
SAMPLER_SET[23]: 71
Assign SAMPLER_SET[24]: 1127  LLC: 2048
SAMPLER_SET[24]: 1127
Assign SAMPLER_SET[25]: 1382  LLC: 2048
SAMPLER_SET[25]: 1382
Assign SAMPLER_SET[26]: 647  LLC: 2048
SAMPLER_SET[26]: 647
Assign SAMPLER_SET[27]: 857  LLC: 2048
SAMPLER_SET[27]: 857
Assign SAMPLER_SET[28]: 1450  LLC: 2048
SAMPLER_SET[28]: 1450
Assign SAMPLER_SET[29]: 1160  LLC: 2048
SAMPLER_SET[29]: 1160
Assign SAMPLER_SET[30]: 1852  LLC: 2048
SAMPLER_SET[30]: 1852
Assign SAMPLER_SET[31]: 1881  LLC: 2048
SAMPLER_SET[31]: 1881
Assign SAMPLER_SET[32]: 1770  LLC: 2048
SAMPLER_SET[32]: 1770
Assign SAMPLER_SET[33]: 1622  LLC: 2048
SAMPLER_SET[33]: 1622
Assign SAMPLER_SET[34]: 275  LLC: 2048
SAMPLER_SET[34]: 275
Assign SAMPLER_SET[35]: 635  LLC: 2048
SAMPLER_SET[35]: 635
Assign SAMPLER_SET[36]: 466  LLC: 2048
SAMPLER_SET[36]: 466
Assign SAMPLER_SET[37]: 1413  LLC: 2048
SAMPLER_SET[37]: 1413
Assign SAMPLER_SET[38]: 417  LLC: 2048
SAMPLER_SET[38]: 417
Assign SAMPLER_SET[39]: 472  LLC: 2048
SAMPLER_SET[39]: 472
Assign SAMPLER_SET[40]: 1340  LLC: 2048
SAMPLER_SET[40]: 1340
Assign SAMPLER_SET[41]: 852  LLC: 2048
SAMPLER_SET[41]: 852
Assign SAMPLER_SET[42]: 1365  LLC: 2048
SAMPLER_SET[42]: 1365
Assign SAMPLER_SET[43]: 47  LLC: 2048
SAMPLER_SET[43]: 47
Assign SAMPLER_SET[44]: 823  LLC: 2048
SAMPLER_SET[44]: 823
Assign SAMPLER_SET[45]: 686  LLC: 2048
SAMPLER_SET[45]: 686
Assign SAMPLER_SET[46]: 1637  LLC: 2048
SAMPLER_SET[46]: 1637
Assign SAMPLER_SET[47]: 1115  LLC: 2048
SAMPLER_SET[47]: 1115
Assign SAMPLER_SET[48]: 986  LLC: 2048
SAMPLER_SET[48]: 986
Assign SAMPLER_SET[49]: 258  LLC: 2048
SAMPLER_SET[49]: 258
Assign SAMPLER_SET[50]: 633  LLC: 2048
SAMPLER_SET[50]: 633
Assign SAMPLER_SET[51]: 920  LLC: 2048
SAMPLER_SET[51]: 920
Assign SAMPLER_SET[52]: 204  LLC: 2048
SAMPLER_SET[52]: 204
Assign SAMPLER_SET[53]: 227  LLC: 2048
SAMPLER_SET[53]: 227
Assign SAMPLER_SET[54]: 1818  LLC: 2048
SAMPLER_SET[54]: 1818
Assign SAMPLER_SET[55]: 886  LLC: 2048
SAMPLER_SET[55]: 886
Assign SAMPLER_SET[56]: 1422  LLC: 2048
SAMPLER_SET[56]: 1422
Assign SAMPLER_SET[57]: 607  LLC: 2048
SAMPLER_SET[57]: 607
Assign SAMPLER_SET[58]: 217  LLC: 2048
SAMPLER_SET[58]: 217
Assign SAMPLER_SET[59]: 1945  LLC: 2048
SAMPLER_SET[59]: 1945
Assign SAMPLER_SET[60]: 143  LLC: 2048
SAMPLER_SET[60]: 143
Assign SAMPLER_SET[61]: 1311  LLC: 2048
SAMPLER_SET[61]: 1311
Assign SAMPLER_SET[62]: 319  LLC: 2048
SAMPLER_SET[62]: 319
Assign SAMPLER_SET[63]: 1846  LLC: 2048
SAMPLER_SET[63]: 1846
Heartbeat CPU 0 instructions: 10000000 cycles: 4113750 heartbeat IPC: 2.43087 cumulative IPC: 2.43087 (Simulation time: 0 hr 0 min 24 sec) 
Heartbeat CPU 0 instructions: 20000000 cycles: 8235639 heartbeat IPC: 2.42607 cumulative IPC: 2.42847 (Simulation time: 0 hr 0 min 48 sec) 
Heartbeat CPU 0 instructions: 30000002 cycles: 12342651 heartbeat IPC: 2.43486 cumulative IPC: 2.4306 (Simulation time: 0 hr 1 min 12 sec) 
Heartbeat CPU 0 instructions: 40000000 cycles: 16454054 heartbeat IPC: 2.43226 cumulative IPC: 2.43101 (Simulation time: 0 hr 1 min 37 sec) 
Heartbeat CPU 0 instructions: 50000000 cycles: 20560252 heartbeat IPC: 2.43534 cumulative IPC: 2.43188 (Simulation time: 0 hr 2 min 1 sec) 
Heartbeat CPU 0 instructions: 60000003 cycles: 24668091 heartbeat IPC: 2.43437 cumulative IPC: 2.43229 (Simulation time: 0 hr 2 min 25 sec) 
Heartbeat CPU 0 instructions: 70000003 cycles: 28780936 heartbeat IPC: 2.43141 cumulative IPC: 2.43217 (Simulation time: 0 hr 2 min 49 sec) 
Heartbeat CPU 0 instructions: 80000000 cycles: 32893117 heartbeat IPC: 2.4318 cumulative IPC: 2.43212 (Simulation time: 0 hr 3 min 14 sec) 
Heartbeat CPU 0 instructions: 90000000 cycles: 37011717 heartbeat IPC: 2.42801 cumulative IPC: 2.43166 (Simulation time: 0 hr 3 min 38 sec) 
Heartbeat CPU 0 instructions: 100000000 cycles: 41103128 heartbeat IPC: 2.44414 cumulative IPC: 2.4329 (Simulation time: 0 hr 4 min 2 sec) 

Warmup complete CPU 0 instructions: 100000002 cycles: 41103129 (Simulation time: 0 hr 4 min 2 sec) 

Heartbeat CPU 0 instructions: 110000000 cycles: 69743522 heartbeat IPC: 0.349157 cumulative IPC: 0.349157 (Simulation time: 0 hr 4 min 23 sec) 
Heartbeat CPU 0 instructions: 120000000 cycles: 97514282 heartbeat IPC: 0.360091 cumulative IPC: 0.35454 (Simulation time: 0 hr 4 min 43 sec) 
Heartbeat CPU 0 instructions: 130000000 cycles: 125398729 heartbeat IPC: 0.358623 cumulative IPC: 0.35589 (Simulation time: 0 hr 5 min 3 sec) 
Heartbeat CPU 0 instructions: 140000002 cycles: 153938871 heartbeat IPC: 0.350384 cumulative IPC: 0.354498 (Simulation time: 0 hr 5 min 23 sec) 
Heartbeat CPU 0 instructions: 150000000 cycles: 182675162 heartbeat IPC: 0.347992 cumulative IPC: 0.353177 (Simulation time: 0 hr 5 min 44 sec) 
Heartbeat CPU 0 instructions: 160000000 cycles: 211306309 heartbeat IPC: 0.34927 cumulative IPC: 0.35252 (Simulation time: 0 hr 6 min 4 sec) 
Heartbeat CPU 0 instructions: 170000000 cycles: 240429467 heartbeat IPC: 0.343369 cumulative IPC: 0.351183 (Simulation time: 0 hr 6 min 25 sec) 
Heartbeat CPU 0 instructions: 180000001 cycles: 268501684 heartbeat IPC: 0.356224 cumulative IPC: 0.351805 (Simulation time: 0 hr 6 min 45 sec) 
Heartbeat CPU 0 instructions: 190000002 cycles: 297045002 heartbeat IPC: 0.350345 cumulative IPC: 0.351642 (Simulation time: 0 hr 7 min 5 sec) 
Heartbeat CPU 0 instructions: 200000000 cycles: 325603825 heartbeat IPC: 0.350154 cumulative IPC: 0.351493 (Simulation time: 0 hr 7 min 26 sec) 
Heartbeat CPU 0 instructions: 210000003 cycles: 354001789 heartbeat IPC: 0.352138 cumulative IPC: 0.351552 (Simulation time: 0 hr 7 min 46 sec) 
Heartbeat CPU 0 instructions: 220000000 cycles: 382539174 heartbeat IPC: 0.350417 cumulative IPC: 0.351457 (Simulation time: 0 hr 8 min 7 sec) 
Heartbeat CPU 0 instructions: 230000000 cycles: 412100768 heartbeat IPC: 0.338277 cumulative IPC: 0.350407 (Simulation time: 0 hr 8 min 27 sec) 
Heartbeat CPU 0 instructions: 240000000 cycles: 439373945 heartbeat IPC: 0.366661 cumulative IPC: 0.35152 (Simulation time: 0 hr 8 min 47 sec) 
Heartbeat CPU 0 instructions: 250000001 cycles: 467849598 heartbeat IPC: 0.351177 cumulative IPC: 0.351497 (Simulation time: 0 hr 9 min 8 sec) 
Heartbeat CPU 0 instructions: 260000002 cycles: 496647048 heartbeat IPC: 0.347253 cumulative IPC: 0.351228 (Simulation time: 0 hr 9 min 28 sec) 
Heartbeat CPU 0 instructions: 270000000 cycles: 524785894 heartbeat IPC: 0.355381 cumulative IPC: 0.35147 (Simulation time: 0 hr 9 min 48 sec) 
Heartbeat CPU 0 instructions: 280000001 cycles: 552920921 heartbeat IPC: 0.355429 cumulative IPC: 0.351688 (Simulation time: 0 hr 10 min 9 sec) 
Heartbeat CPU 0 instructions: 290000003 cycles: 580802359 heartbeat IPC: 0.358662 cumulative IPC: 0.352048 (Simulation time: 0 hr 10 min 29 sec) 
Heartbeat CPU 0 instructions: 300000000 cycles: 609061644 heartbeat IPC: 0.353866 cumulative IPC: 0.352138 (Simulation time: 0 hr 10 min 50 sec) 
Heartbeat CPU 0 instructions: 310000000 cycles: 635574543 heartbeat IPC: 0.377175 cumulative IPC: 0.353255 (Simulation time: 0 hr 11 min 10 sec) 
Heartbeat CPU 0 instructions: 320000001 cycles: 663822634 heartbeat IPC: 0.354006 cumulative IPC: 0.353289 (Simulation time: 0 hr 11 min 31 sec) 
Heartbeat CPU 0 instructions: 330000000 cycles: 691376028 heartbeat IPC: 0.362932 cumulative IPC: 0.353698 (Simulation time: 0 hr 11 min 51 sec) 
Heartbeat CPU 0 instructions: 340000003 cycles: 718295040 heartbeat IPC: 0.371485 cumulative IPC: 0.354405 (Simulation time: 0 hr 12 min 12 sec) 
Heartbeat CPU 0 instructions: 350000003 cycles: 745321033 heartbeat IPC: 0.370014 cumulative IPC: 0.355004 (Simulation time: 0 hr 12 min 32 sec) 
Heartbeat CPU 0 instructions: 360000003 cycles: 771970070 heartbeat IPC: 0.375248 cumulative IPC: 0.355742 (Simulation time: 0 hr 12 min 52 sec) 
Heartbeat CPU 0 instructions: 370000002 cycles: 798577137 heartbeat IPC: 0.37584 cumulative IPC: 0.356448 (Simulation time: 0 hr 13 min 12 sec) 
Heartbeat CPU 0 instructions: 380000001 cycles: 825713070 heartbeat IPC: 0.368515 cumulative IPC: 0.356865 (Simulation time: 0 hr 13 min 33 sec) 
Heartbeat CPU 0 instructions: 390000000 cycles: 852605826 heartbeat IPC: 0.371847 cumulative IPC: 0.357362 (Simulation time: 0 hr 13 min 53 sec) 
Heartbeat CPU 0 instructions: 400000001 cycles: 879464623 heartbeat IPC: 0.372318 cumulative IPC: 0.357841 (Simulation time: 0 hr 14 min 13 sec) 
Heartbeat CPU 0 instructions: 410000000 cycles: 907142263 heartbeat IPC: 0.361302 cumulative IPC: 0.357951 (Simulation time: 0 hr 14 min 34 sec) 
Heartbeat CPU 0 instructions: 420000003 cycles: 934585740 heartbeat IPC: 0.364385 cumulative IPC: 0.358149 (Simulation time: 0 hr 14 min 54 sec) 
Heartbeat CPU 0 instructions: 430000000 cycles: 961601692 heartbeat IPC: 0.370152 cumulative IPC: 0.358501 (Simulation time: 0 hr 15 min 15 sec) 
Heartbeat CPU 0 instructions: 440000000 cycles: 988199610 heartbeat IPC: 0.375969 cumulative IPC: 0.358992 (Simulation time: 0 hr 15 min 35 sec) 
Heartbeat CPU 0 instructions: 450000002 cycles: 1015976683 heartbeat IPC: 0.360009 cumulative IPC: 0.359021 (Simulation time: 0 hr 15 min 55 sec) 
Heartbeat CPU 0 instructions: 460000001 cycles: 1043728384 heartbeat IPC: 0.360338 cumulative IPC: 0.359057 (Simulation time: 0 hr 16 min 15 sec) 
Heartbeat CPU 0 instructions: 470000003 cycles: 1072420153 heartbeat IPC: 0.348532 cumulative IPC: 0.358765 (Simulation time: 0 hr 16 min 36 sec) 
Heartbeat CPU 0 instructions: 480000000 cycles: 1100426756 heartbeat IPC: 0.357059 cumulative IPC: 0.358719 (Simulation time: 0 hr 16 min 56 sec) 
Heartbeat CPU 0 instructions: 490000003 cycles: 1128152688 heartbeat IPC: 0.360673 cumulative IPC: 0.358769 (Simulation time: 0 hr 17 min 16 sec) 
Heartbeat CPU 0 instructions: 500000000 cycles: 1156315516 heartbeat IPC: 0.355078 cumulative IPC: 0.358676 (Simulation time: 0 hr 17 min 37 sec) 
Heartbeat CPU 0 instructions: 510000001 cycles: 1183704191 heartbeat IPC: 0.365114 cumulative IPC: 0.35883 (Simulation time: 0 hr 17 min 57 sec) 
Heartbeat CPU 0 instructions: 520000000 cycles: 1211459181 heartbeat IPC: 0.360296 cumulative IPC: 0.358865 (Simulation time: 0 hr 18 min 17 sec) 
Heartbeat CPU 0 instructions: 530000003 cycles: 1240089578 heartbeat IPC: 0.349279 cumulative IPC: 0.358636 (Simulation time: 0 hr 18 min 38 sec) 
Heartbeat CPU 0 instructions: 540000001 cycles: 1268277233 heartbeat IPC: 0.354765 cumulative IPC: 0.358547 (Simulation time: 0 hr 18 min 58 sec) 
Heartbeat CPU 0 instructions: 550000000 cycles: 1296578075 heartbeat IPC: 0.353346 cumulative IPC: 0.35843 (Simulation time: 0 hr 19 min 19 sec) 
Heartbeat CPU 0 instructions: 560000000 cycles: 1325133330 heartbeat IPC: 0.350198 cumulative IPC: 0.358247 (Simulation time: 0 hr 19 min 39 sec) 
Heartbeat CPU 0 instructions: 570000000 cycles: 1362495649 heartbeat IPC: 0.267649 cumulative IPC: 0.355685 (Simulation time: 0 hr 20 min 2 sec) 
Heartbeat CPU 0 instructions: 580000001 cycles: 1391821237 heartbeat IPC: 0.340999 cumulative IPC: 0.355367 (Simulation time: 0 hr 20 min 22 sec) 
Heartbeat CPU 0 instructions: 590000000 cycles: 1421552393 heartbeat IPC: 0.336347 cumulative IPC: 0.354957 (Simulation time: 0 hr 20 min 43 sec) 
Heartbeat CPU 0 instructions: 600000000 cycles: 1451189882 heartbeat IPC: 0.337411 cumulative IPC: 0.354588 (Simulation time: 0 hr 21 min 4 sec) 
Heartbeat CPU 0 instructions: 610000001 cycles: 1480496327 heartbeat IPC: 0.341222 cumulative IPC: 0.354316 (Simulation time: 0 hr 21 min 25 sec) 
Heartbeat CPU 0 instructions: 620000001 cycles: 1508623563 heartbeat IPC: 0.355527 cumulative IPC: 0.354339 (Simulation time: 0 hr 21 min 46 sec) 
Heartbeat CPU 0 instructions: 630000001 cycles: 1537487075 heartbeat IPC: 0.346458 cumulative IPC: 0.354187 (Simulation time: 0 hr 22 min 7 sec) 
Heartbeat CPU 0 instructions: 640000002 cycles: 1566637535 heartbeat IPC: 0.343048 cumulative IPC: 0.353974 (Simulation time: 0 hr 22 min 28 sec) 
Heartbeat CPU 0 instructions: 650000000 cycles: 1594714017 heartbeat IPC: 0.35617 cumulative IPC: 0.354014 (Simulation time: 0 hr 22 min 48 sec) 
Heartbeat CPU 0 instructions: 660000000 cycles: 1623619602 heartbeat IPC: 0.345954 cumulative IPC: 0.353867 (Simulation time: 0 hr 23 min 9 sec) 
Heartbeat CPU 0 instructions: 670000000 cycles: 1652521589 heartbeat IPC: 0.345997 cumulative IPC: 0.353726 (Simulation time: 0 hr 23 min 30 sec) 
Heartbeat CPU 0 instructions: 680000000 cycles: 1681580447 heartbeat IPC: 0.344129 cumulative IPC: 0.353556 (Simulation time: 0 hr 23 min 50 sec) 
Heartbeat CPU 0 instructions: 690000002 cycles: 1710979343 heartbeat IPC: 0.340149 cumulative IPC: 0.35332 (Simulation time: 0 hr 24 min 11 sec) 
Heartbeat CPU 0 instructions: 700000000 cycles: 1739771227 heartbeat IPC: 0.34732 cumulative IPC: 0.353218 (Simulation time: 0 hr 24 min 32 sec) 
Heartbeat CPU 0 instructions: 710000000 cycles: 1769238513 heartbeat IPC: 0.339359 cumulative IPC: 0.352982 (Simulation time: 0 hr 24 min 53 sec) 
Heartbeat CPU 0 instructions: 720000000 cycles: 1799508933 heartbeat IPC: 0.330355 cumulative IPC: 0.352592 (Simulation time: 0 hr 25 min 14 sec) 
Heartbeat CPU 0 instructions: 730000000 cycles: 1829004451 heartbeat IPC: 0.339035 cumulative IPC: 0.352368 (Simulation time: 0 hr 25 min 35 sec) 
Heartbeat CPU 0 instructions: 740000002 cycles: 1857605608 heartbeat IPC: 0.349636 cumulative IPC: 0.352325 (Simulation time: 0 hr 25 min 56 sec) 
Heartbeat CPU 0 instructions: 750000001 cycles: 1886896831 heartbeat IPC: 0.341399 cumulative IPC: 0.352152 (Simulation time: 0 hr 26 min 16 sec) 
Heartbeat CPU 0 instructions: 760000002 cycles: 1916943615 heartbeat IPC: 0.332814 cumulative IPC: 0.351842 (Simulation time: 0 hr 26 min 38 sec) 
Heartbeat CPU 0 instructions: 770000000 cycles: 1946742438 heartbeat IPC: 0.335584 cumulative IPC: 0.351588 (Simulation time: 0 hr 26 min 58 sec) 
Heartbeat CPU 0 instructions: 780000002 cycles: 1976066545 heartbeat IPC: 0.341016 cumulative IPC: 0.351428 (Simulation time: 0 hr 27 min 19 sec) 
Heartbeat CPU 0 instructions: 790000001 cycles: 2005232717 heartbeat IPC: 0.342863 cumulative IPC: 0.351301 (Simulation time: 0 hr 27 min 40 sec) 
Heartbeat CPU 0 instructions: 800000000 cycles: 2035761905 heartbeat IPC: 0.327555 cumulative IPC: 0.350937 (Simulation time: 0 hr 28 min 1 sec) 
Heartbeat CPU 0 instructions: 810000003 cycles: 2065799769 heartbeat IPC: 0.332913 cumulative IPC: 0.35067 (Simulation time: 0 hr 28 min 23 sec) 
Heartbeat CPU 0 instructions: 820000002 cycles: 2096107803 heartbeat IPC: 0.329945 cumulative IPC: 0.350364 (Simulation time: 0 hr 28 min 44 sec) 
Heartbeat CPU 0 instructions: 830000000 cycles: 2126809468 heartbeat IPC: 0.325715 cumulative IPC: 0.350001 (Simulation time: 0 hr 29 min 6 sec) 
Heartbeat CPU 0 instructions: 840000001 cycles: 2157111953 heartbeat IPC: 0.330006 cumulative IPC: 0.349715 (Simulation time: 0 hr 29 min 28 sec) 
Heartbeat CPU 0 instructions: 850000001 cycles: 2188661665 heartbeat IPC: 0.31696 cumulative IPC: 0.349234 (Simulation time: 0 hr 29 min 50 sec) 
Heartbeat CPU 0 instructions: 860000002 cycles: 2219102874 heartbeat IPC: 0.328502 cumulative IPC: 0.348944 (Simulation time: 0 hr 30 min 12 sec) 
Heartbeat CPU 0 instructions: 870000001 cycles: 2249625411 heartbeat IPC: 0.327627 cumulative IPC: 0.348649 (Simulation time: 0 hr 30 min 34 sec) 
Heartbeat CPU 0 instructions: 880000000 cycles: 2280775428 heartbeat IPC: 0.321027 cumulative IPC: 0.348265 (Simulation time: 0 hr 30 min 57 sec) 
Heartbeat CPU 0 instructions: 890000000 cycles: 2311804883 heartbeat IPC: 0.322274 cumulative IPC: 0.34791 (Simulation time: 0 hr 31 min 19 sec) 
Heartbeat CPU 0 instructions: 900000000 cycles: 2342003554 heartbeat IPC: 0.33114 cumulative IPC: 0.34769 (Simulation time: 0 hr 31 min 41 sec) 
Heartbeat CPU 0 instructions: 910000003 cycles: 2371837654 heartbeat IPC: 0.335187 cumulative IPC: 0.34753 (Simulation time: 0 hr 32 min 3 sec) 
Heartbeat CPU 0 instructions: 920000001 cycles: 2403030339 heartbeat IPC: 0.320588 cumulative IPC: 0.347174 (Simulation time: 0 hr 32 min 26 sec) 
Heartbeat CPU 0 instructions: 930000003 cycles: 2433663547 heartbeat IPC: 0.326443 cumulative IPC: 0.346909 (Simulation time: 0 hr 32 min 48 sec) 
Heartbeat CPU 0 instructions: 940000000 cycles: 2463637674 heartbeat IPC: 0.333621 cumulative IPC: 0.346744 (Simulation time: 0 hr 33 min 10 sec) 
Heartbeat CPU 0 instructions: 950000003 cycles: 2494244040 heartbeat IPC: 0.32673 cumulative IPC: 0.346495 (Simulation time: 0 hr 33 min 32 sec) 
Heartbeat CPU 0 instructions: 960000001 cycles: 2524876963 heartbeat IPC: 0.326446 cumulative IPC: 0.346247 (Simulation time: 0 hr 33 min 54 sec) 
Heartbeat CPU 0 instructions: 970000002 cycles: 2556085436 heartbeat IPC: 0.320426 cumulative IPC: 0.345927 (Simulation time: 0 hr 34 min 17 sec) 
Heartbeat CPU 0 instructions: 980000003 cycles: 2586797831 heartbeat IPC: 0.325601 cumulative IPC: 0.345682 (Simulation time: 0 hr 34 min 40 sec) 
Heartbeat CPU 0 instructions: 990000000 cycles: 2616799820 heartbeat IPC: 0.333311 cumulative IPC: 0.345538 (Simulation time: 0 hr 35 min 2 sec) 
Heartbeat CPU 0 instructions: 1000000002 cycles: 2647135601 heartbeat IPC: 0.329644 cumulative IPC: 0.345353 (Simulation time: 0 hr 35 min 24 sec) 
Heartbeat CPU 0 instructions: 1010000002 cycles: 2677468624 heartbeat IPC: 0.329674 cumulative IPC: 0.345172 (Simulation time: 0 hr 35 min 46 sec) 
Heartbeat CPU 0 instructions: 1020000002 cycles: 2709437999 heartbeat IPC: 0.312799 cumulative IPC: 0.344784 (Simulation time: 0 hr 36 min 9 sec) 
Heartbeat CPU 0 instructions: 1030000003 cycles: 2740549341 heartbeat IPC: 0.321426 cumulative IPC: 0.344515 (Simulation time: 0 hr 36 min 31 sec) 
Heartbeat CPU 0 instructions: 1040000001 cycles: 2770853934 heartbeat IPC: 0.329983 cumulative IPC: 0.344354 (Simulation time: 0 hr 36 min 53 sec) 
Heartbeat CPU 0 instructions: 1050000001 cycles: 2801747708 heartbeat IPC: 0.32369 cumulative IPC: 0.344123 (Simulation time: 0 hr 37 min 15 sec) 
Heartbeat CPU 0 instructions: 1060000000 cycles: 2832119479 heartbeat IPC: 0.329253 cumulative IPC: 0.343961 (Simulation time: 0 hr 37 min 37 sec) 
Heartbeat CPU 0 instructions: 1070000003 cycles: 2862559908 heartbeat IPC: 0.328511 cumulative IPC: 0.343794 (Simulation time: 0 hr 37 min 59 sec) 
Heartbeat CPU 0 instructions: 1080000000 cycles: 2892166931 heartbeat IPC: 0.337758 cumulative IPC: 0.343731 (Simulation time: 0 hr 38 min 20 sec) 
Heartbeat CPU 0 instructions: 1090000002 cycles: 2923323685 heartbeat IPC: 0.320958 cumulative IPC: 0.343485 (Simulation time: 0 hr 38 min 42 sec) 
Heartbeat CPU 0 instructions: 1100000000 cycles: 2952661703 heartbeat IPC: 0.340855 cumulative IPC: 0.343459 (Simulation time: 0 hr 39 min 4 sec) 
Finished CPU 0 instructions: 1000000000 cycles: 2911558575 cumulative IPC: 0.343459 (Simulation time: 0 hr 39 min 4 sec) 

ChampSim completed all CPUs

Region of Interest Statistics

CPU 0 cumulative IPC: 0.343459 instructions: 1000000000 cycles: 2911558575
L1D TOTAL     ACCESS:  372189101  HIT:  329072784  MISS:   43116317
L1D LOAD      ACCESS:  263319819  HIT:  224099534  MISS:   39220285
L1D RFO       ACCESS:  108869282  HIT:  104973250  MISS:    3896032
L1D PREFETCH  ACCESS:          0  HIT:          0  MISS:          0
L1D WRITEBACK ACCESS:          0  HIT:          0  MISS:          0
L1D PREFETCH  REQUESTED:          0  ISSUED:          0  USEFUL:          0  USELESS:          0
L1D AVERAGE MISS LATENCY: 80.166 cycles
L1I TOTAL     ACCESS:  194976864  HIT:  194976862  MISS:          2
L1I LOAD      ACCESS:  194976864  HIT:  194976862  MISS:          2
L1I RFO       ACCESS:          0  HIT:          0  MISS:          0
L1I PREFETCH  ACCESS:          0  HIT:          0  MISS:          0
L1I WRITEBACK ACCESS:          0  HIT:          0  MISS:          0
L1I PREFETCH  REQUESTED:          0  ISSUED:          0  USEFUL:          0  USELESS:          0
L1I AVERAGE MISS LATENCY: 235 cycles
L2C TOTAL     ACCESS:   49085982  HIT:   18188369  MISS:   30897613
L2C LOAD      ACCESS:   39220175  HIT:   11198836  MISS:   28021339
L2C RFO       ACCESS:    3895970  HIT:    1026145  MISS:    2869825
L2C PREFETCH  ACCESS:          0  HIT:          0  MISS:          0
L2C WRITEBACK ACCESS:    5969837  HIT:    5963388  MISS:       6449
L2C PREFETCH  REQUESTED:          0  ISSUED:          0  USEFUL:          0  USELESS:          0
L2C AVERAGE MISS LATENCY: 94.782 cycles
LLC TOTAL     ACCESS:   35142243  HIT:   22553079  MISS:   12589164
LLC LOAD      ACCESS:   28021254  HIT:   15496292  MISS:   12524962
LLC RFO       ACCESS:    2869721  HIT:    2860382  MISS:       9339
LLC PREFETCH  ACCESS:          0  HIT:          0  MISS:          0
LLC WRITEBACK ACCESS:    4251268  HIT:    4196405  MISS:      54863
LLC PREFETCH  REQUESTED:          0  ISSUED:          0  USEFUL:          0  USELESS:          0
LLC AVERAGE MISS LATENCY: 133.106 cycles
Major fault: 0 Minor fault: 151086
==============================
Perceptron RRIP Stats:
   Num Updates:          1098306
   Num Primary Trains:   35279
   Num Secondary Trains: 36429
==============================
primary_perceptron #0: 3 -1 -3 5 3 -3 1 -1 -1 3 1 -1 -3 1 -3 -11 
secondary_perceptron #0: 1 -3 -7 7 3 -3 5 1 1 5 -1 1 -3 3 -3 1 -3 -5 3 -1 -17 


DRAM Statistics
 CHANNEL 0
 RQ ROW_BUFFER_HIT:    6657942  ROW_BUFFER_MISS:    5876350
 DBUS_CONGESTED:    1836755
 WQ ROW_BUFFER_HIT:      43676  ROW_BUFFER_MISS:      69447  FULL:          0

 AVG_CONGESTED_CYCLE: 5

CPU 0 Branch Prediction Accuracy: 88.8495% MPKI: 28.0155 Average ROB Occupancy at Mispredict: 14.8615

Branch types
NOT_BRANCH: 748751390 74.8751%
BRANCH_DIRECT_JUMP: 26840018 2.684%
BRANCH_INDIRECT: 0 0%
BRANCH_CONDITIONAL: 170587008 17.0587%
BRANCH_DIRECT_CALL: 25420991 2.5421%
BRANCH_INDIRECT_CALL: 1489642 0.148964%
BRANCH_RETURN: 26910634 2.69106%
BRANCH_OTHER: 0 0%

