
*** ChampSim Multicore Out-of-Order Simulator ***

Warmup Instructions: 100000000
Simulation Instructions: 1000000000
Number of CPUs: 1
LLC sets: 2048
LLC ways: 16
Off-chip DRAM Size: 4096 MB Channels: 1 Width: 64-bit Data Rate: 3200 MT/s

CPU 0 runs /scratch/user/kevin.weston/dpc3-traces/605.champsimtrace.xz
CPU 0 Bimodal branch predictor
Initialize DRRIP state
Assign rand_sets[0]: 454  LLC: 2048
rand_sets[0]: 454
Assign rand_sets[1]: 1662  LLC: 2048
rand_sets[1]: 1662
Assign rand_sets[2]: 1921  LLC: 2048
rand_sets[2]: 1921
Assign rand_sets[3]: 1131  LLC: 2048
rand_sets[3]: 1131
Assign rand_sets[4]: 331  LLC: 2048
rand_sets[4]: 331
Assign rand_sets[5]: 1531  LLC: 2048
rand_sets[5]: 1531
Assign rand_sets[6]: 482  LLC: 2048
rand_sets[6]: 482
Assign rand_sets[7]: 1275  LLC: 2048
rand_sets[7]: 1275
Assign rand_sets[8]: 1876  LLC: 2048
rand_sets[8]: 1876
Assign rand_sets[9]: 2038  LLC: 2048
rand_sets[9]: 2038
Assign rand_sets[10]: 701  LLC: 2048
rand_sets[10]: 701
Assign rand_sets[11]: 479  LLC: 2048
rand_sets[11]: 479
Assign rand_sets[12]: 892  LLC: 2048
rand_sets[12]: 892
Assign rand_sets[13]: 1820  LLC: 2048
rand_sets[13]: 1820
Assign rand_sets[14]: 1505  LLC: 2048
rand_sets[14]: 1505
Assign rand_sets[15]: 1159  LLC: 2048
rand_sets[15]: 1159
Assign rand_sets[16]: 513  LLC: 2048
rand_sets[16]: 513
Assign rand_sets[17]: 703  LLC: 2048
rand_sets[17]: 703
Assign rand_sets[18]: 561  LLC: 2048
rand_sets[18]: 561
Assign rand_sets[19]: 990  LLC: 2048
rand_sets[19]: 990
Assign rand_sets[20]: 342  LLC: 2048
rand_sets[20]: 342
Assign rand_sets[21]: 882  LLC: 2048
rand_sets[21]: 882
Assign rand_sets[22]: 15  LLC: 2048
rand_sets[22]: 15
Assign rand_sets[23]: 71  LLC: 2048
rand_sets[23]: 71
Assign rand_sets[24]: 1127  LLC: 2048
rand_sets[24]: 1127
Assign rand_sets[25]: 1382  LLC: 2048
rand_sets[25]: 1382
Assign rand_sets[26]: 647  LLC: 2048
rand_sets[26]: 647
Assign rand_sets[27]: 857  LLC: 2048
rand_sets[27]: 857
Assign rand_sets[28]: 1450  LLC: 2048
rand_sets[28]: 1450
Assign rand_sets[29]: 1160  LLC: 2048
rand_sets[29]: 1160
Assign rand_sets[30]: 1852  LLC: 2048
rand_sets[30]: 1852
Assign rand_sets[31]: 1881  LLC: 2048
rand_sets[31]: 1881
Assign rand_sets[32]: 1770  LLC: 2048
rand_sets[32]: 1770
Assign rand_sets[33]: 1622  LLC: 2048
rand_sets[33]: 1622
Assign rand_sets[34]: 275  LLC: 2048
rand_sets[34]: 275
Assign rand_sets[35]: 635  LLC: 2048
rand_sets[35]: 635
Assign rand_sets[36]: 466  LLC: 2048
rand_sets[36]: 466
Assign rand_sets[37]: 1413  LLC: 2048
rand_sets[37]: 1413
Assign rand_sets[38]: 417  LLC: 2048
rand_sets[38]: 417
Assign rand_sets[39]: 472  LLC: 2048
rand_sets[39]: 472
Assign rand_sets[40]: 1340  LLC: 2048
rand_sets[40]: 1340
Assign rand_sets[41]: 852  LLC: 2048
rand_sets[41]: 852
Assign rand_sets[42]: 1365  LLC: 2048
rand_sets[42]: 1365
Assign rand_sets[43]: 47  LLC: 2048
rand_sets[43]: 47
Assign rand_sets[44]: 823  LLC: 2048
rand_sets[44]: 823
Assign rand_sets[45]: 686  LLC: 2048
rand_sets[45]: 686
Assign rand_sets[46]: 1637  LLC: 2048
rand_sets[46]: 1637
Assign rand_sets[47]: 1115  LLC: 2048
rand_sets[47]: 1115
Assign rand_sets[48]: 986  LLC: 2048
rand_sets[48]: 986
Assign rand_sets[49]: 258  LLC: 2048
rand_sets[49]: 258
Assign rand_sets[50]: 633  LLC: 2048
rand_sets[50]: 633
Assign rand_sets[51]: 920  LLC: 2048
rand_sets[51]: 920
Assign rand_sets[52]: 204  LLC: 2048
rand_sets[52]: 204
Assign rand_sets[53]: 227  LLC: 2048
rand_sets[53]: 227
Assign rand_sets[54]: 1818  LLC: 2048
rand_sets[54]: 1818
Assign rand_sets[55]: 886  LLC: 2048
rand_sets[55]: 886
Assign rand_sets[56]: 1422  LLC: 2048
rand_sets[56]: 1422
Assign rand_sets[57]: 607  LLC: 2048
rand_sets[57]: 607
Assign rand_sets[58]: 217  LLC: 2048
rand_sets[58]: 217
Assign rand_sets[59]: 1945  LLC: 2048
rand_sets[59]: 1945
Assign rand_sets[60]: 143  LLC: 2048
rand_sets[60]: 143
Assign rand_sets[61]: 1311  LLC: 2048
rand_sets[61]: 1311
Assign rand_sets[62]: 319  LLC: 2048
rand_sets[62]: 319
Assign rand_sets[63]: 1846  LLC: 2048
rand_sets[63]: 1846
Heartbeat CPU 0 instructions: 10000000 cycles: 4111484 heartbeat IPC: 2.43221 cumulative IPC: 2.43221 (Simulation time: 0 hr 0 min 24 sec) 
Heartbeat CPU 0 instructions: 20000000 cycles: 8230073 heartbeat IPC: 2.42802 cumulative IPC: 2.43011 (Simulation time: 0 hr 0 min 48 sec) 
Heartbeat CPU 0 instructions: 30000002 cycles: 12334168 heartbeat IPC: 2.43659 cumulative IPC: 2.43227 (Simulation time: 0 hr 1 min 12 sec) 
Heartbeat CPU 0 instructions: 40000000 cycles: 16442020 heartbeat IPC: 2.43436 cumulative IPC: 2.43279 (Simulation time: 0 hr 1 min 36 sec) 
Heartbeat CPU 0 instructions: 50000000 cycles: 20545120 heartbeat IPC: 2.43718 cumulative IPC: 2.43367 (Simulation time: 0 hr 2 min 0 sec) 
Heartbeat CPU 0 instructions: 60000003 cycles: 24649634 heartbeat IPC: 2.43634 cumulative IPC: 2.43411 (Simulation time: 0 hr 2 min 25 sec) 
Heartbeat CPU 0 instructions: 70000003 cycles: 28758769 heartbeat IPC: 2.4336 cumulative IPC: 2.43404 (Simulation time: 0 hr 2 min 49 sec) 
Heartbeat CPU 0 instructions: 80000000 cycles: 32866893 heartbeat IPC: 2.4342 cumulative IPC: 2.43406 (Simulation time: 0 hr 3 min 14 sec) 
Heartbeat CPU 0 instructions: 90000000 cycles: 36982173 heartbeat IPC: 2.42997 cumulative IPC: 2.4336 (Simulation time: 0 hr 3 min 39 sec) 
Heartbeat CPU 0 instructions: 100000000 cycles: 41070065 heartbeat IPC: 2.44625 cumulative IPC: 2.43486 (Simulation time: 0 hr 4 min 3 sec) 

Warmup complete CPU 0 instructions: 100000002 cycles: 41070066 (Simulation time: 0 hr 4 min 3 sec) 

Heartbeat CPU 0 instructions: 110000000 cycles: 67979237 heartbeat IPC: 0.371621 cumulative IPC: 0.37162 (Simulation time: 0 hr 4 min 23 sec) 
Heartbeat CPU 0 instructions: 120000000 cycles: 94688757 heartbeat IPC: 0.374398 cumulative IPC: 0.373004 (Simulation time: 0 hr 4 min 43 sec) 
Heartbeat CPU 0 instructions: 130000000 cycles: 121221272 heartbeat IPC: 0.376896 cumulative IPC: 0.374293 (Simulation time: 0 hr 5 min 3 sec) 
Heartbeat CPU 0 instructions: 140000002 cycles: 148515253 heartbeat IPC: 0.366381 cumulative IPC: 0.372283 (Simulation time: 0 hr 5 min 22 sec) 
Heartbeat CPU 0 instructions: 150000000 cycles: 175640335 heartbeat IPC: 0.368662 cumulative IPC: 0.371553 (Simulation time: 0 hr 5 min 42 sec) 
Heartbeat CPU 0 instructions: 160000000 cycles: 202346483 heartbeat IPC: 0.374446 cumulative IPC: 0.372032 (Simulation time: 0 hr 6 min 2 sec) 
Heartbeat CPU 0 instructions: 170000000 cycles: 229930522 heartbeat IPC: 0.362529 cumulative IPC: 0.370644 (Simulation time: 0 hr 6 min 22 sec) 
Heartbeat CPU 0 instructions: 180000001 cycles: 256590454 heartbeat IPC: 0.375095 cumulative IPC: 0.371195 (Simulation time: 0 hr 6 min 41 sec) 
Heartbeat CPU 0 instructions: 190000002 cycles: 283600115 heartbeat IPC: 0.370238 cumulative IPC: 0.371088 (Simulation time: 0 hr 7 min 1 sec) 
Heartbeat CPU 0 instructions: 200000000 cycles: 310818496 heartbeat IPC: 0.367399 cumulative IPC: 0.370716 (Simulation time: 0 hr 7 min 21 sec) 
Heartbeat CPU 0 instructions: 210000003 cycles: 338072849 heartbeat IPC: 0.366914 cumulative IPC: 0.370367 (Simulation time: 0 hr 7 min 41 sec) 
Heartbeat CPU 0 instructions: 220000000 cycles: 364585080 heartbeat IPC: 0.377184 cumulative IPC: 0.370926 (Simulation time: 0 hr 8 min 1 sec) 
Heartbeat CPU 0 instructions: 230000000 cycles: 392497158 heartbeat IPC: 0.358268 cumulative IPC: 0.36992 (Simulation time: 0 hr 8 min 21 sec) 
Heartbeat CPU 0 instructions: 240000000 cycles: 418747758 heartbeat IPC: 0.380944 cumulative IPC: 0.370686 (Simulation time: 0 hr 8 min 40 sec) 
Heartbeat CPU 0 instructions: 250000001 cycles: 445550194 heartbeat IPC: 0.3731 cumulative IPC: 0.370846 (Simulation time: 0 hr 9 min 0 sec) 
Heartbeat CPU 0 instructions: 260000002 cycles: 472486330 heartbeat IPC: 0.371249 cumulative IPC: 0.370872 (Simulation time: 0 hr 9 min 20 sec) 
Heartbeat CPU 0 instructions: 270000000 cycles: 499373609 heartbeat IPC: 0.371923 cumulative IPC: 0.370933 (Simulation time: 0 hr 9 min 40 sec) 
Heartbeat CPU 0 instructions: 280000001 cycles: 526305489 heartbeat IPC: 0.371307 cumulative IPC: 0.370954 (Simulation time: 0 hr 10 min 0 sec) 
Heartbeat CPU 0 instructions: 290000003 cycles: 552545252 heartbeat IPC: 0.381101 cumulative IPC: 0.371475 (Simulation time: 0 hr 10 min 19 sec) 
Heartbeat CPU 0 instructions: 300000000 cycles: 579141173 heartbeat IPC: 0.375997 cumulative IPC: 0.371698 (Simulation time: 0 hr 10 min 39 sec) 
Heartbeat CPU 0 instructions: 310000000 cycles: 603962411 heartbeat IPC: 0.402881 cumulative IPC: 0.373073 (Simulation time: 0 hr 10 min 59 sec) 
Heartbeat CPU 0 instructions: 320000001 cycles: 629877349 heartbeat IPC: 0.385878 cumulative IPC: 0.373637 (Simulation time: 0 hr 11 min 19 sec) 
Heartbeat CPU 0 instructions: 330000000 cycles: 655470013 heartbeat IPC: 0.390737 cumulative IPC: 0.374349 (Simulation time: 0 hr 11 min 39 sec) 
Heartbeat CPU 0 instructions: 340000003 cycles: 680910094 heartbeat IPC: 0.393081 cumulative IPC: 0.375094 (Simulation time: 0 hr 11 min 58 sec) 
Heartbeat CPU 0 instructions: 350000003 cycles: 706397673 heartbeat IPC: 0.392348 cumulative IPC: 0.375755 (Simulation time: 0 hr 12 min 18 sec) 
Heartbeat CPU 0 instructions: 360000001 cycles: 731504276 heartbeat IPC: 0.398302 cumulative IPC: 0.376575 (Simulation time: 0 hr 12 min 38 sec) 
Heartbeat CPU 0 instructions: 370000002 cycles: 756655031 heartbeat IPC: 0.397602 cumulative IPC: 0.377314 (Simulation time: 0 hr 12 min 58 sec) 
Heartbeat CPU 0 instructions: 380000001 cycles: 782202152 heartbeat IPC: 0.391434 cumulative IPC: 0.3778 (Simulation time: 0 hr 13 min 17 sec) 
Heartbeat CPU 0 instructions: 390000000 cycles: 807685779 heartbeat IPC: 0.392409 cumulative IPC: 0.378286 (Simulation time: 0 hr 13 min 37 sec) 
Heartbeat CPU 0 instructions: 400000001 cycles: 833128510 heartbeat IPC: 0.39304 cumulative IPC: 0.37876 (Simulation time: 0 hr 13 min 57 sec) 
Heartbeat CPU 0 instructions: 410000000 cycles: 858678023 heartbeat IPC: 0.391397 cumulative IPC: 0.379155 (Simulation time: 0 hr 14 min 17 sec) 
Heartbeat CPU 0 instructions: 420000003 cycles: 884195163 heartbeat IPC: 0.391894 cumulative IPC: 0.37954 (Simulation time: 0 hr 14 min 37 sec) 
Heartbeat CPU 0 instructions: 430000000 cycles: 909821024 heartbeat IPC: 0.390231 cumulative IPC: 0.379856 (Simulation time: 0 hr 14 min 56 sec) 
Heartbeat CPU 0 instructions: 440000000 cycles: 935241133 heartbeat IPC: 0.393389 cumulative IPC: 0.38024 (Simulation time: 0 hr 15 min 16 sec) 
Heartbeat CPU 0 instructions: 450000002 cycles: 961236984 heartbeat IPC: 0.384677 cumulative IPC: 0.380366 (Simulation time: 0 hr 15 min 36 sec) 
Heartbeat CPU 0 instructions: 460000001 cycles: 987422187 heartbeat IPC: 0.381895 cumulative IPC: 0.380408 (Simulation time: 0 hr 15 min 56 sec) 
Heartbeat CPU 0 instructions: 470000003 cycles: 1014375150 heartbeat IPC: 0.371017 cumulative IPC: 0.380148 (Simulation time: 0 hr 16 min 16 sec) 
Heartbeat CPU 0 instructions: 480000000 cycles: 1040790585 heartbeat IPC: 0.378566 cumulative IPC: 0.380106 (Simulation time: 0 hr 16 min 36 sec) 
Heartbeat CPU 0 instructions: 490000003 cycles: 1067241938 heartbeat IPC: 0.378053 cumulative IPC: 0.380053 (Simulation time: 0 hr 16 min 55 sec) 
Heartbeat CPU 0 instructions: 500000000 cycles: 1094434524 heartbeat IPC: 0.367747 cumulative IPC: 0.379736 (Simulation time: 0 hr 17 min 16 sec) 
Heartbeat CPU 0 instructions: 510000001 cycles: 1120735606 heartbeat IPC: 0.380213 cumulative IPC: 0.379747 (Simulation time: 0 hr 17 min 35 sec) 
Heartbeat CPU 0 instructions: 520000000 cycles: 1147078476 heartbeat IPC: 0.379609 cumulative IPC: 0.379744 (Simulation time: 0 hr 17 min 55 sec) 
Heartbeat CPU 0 instructions: 530000003 cycles: 1174158345 heartbeat IPC: 0.369278 cumulative IPC: 0.379494 (Simulation time: 0 hr 18 min 15 sec) 
Heartbeat CPU 0 instructions: 540000001 cycles: 1200586986 heartbeat IPC: 0.378377 cumulative IPC: 0.379468 (Simulation time: 0 hr 18 min 35 sec) 
Heartbeat CPU 0 instructions: 550000000 cycles: 1227752226 heartbeat IPC: 0.368117 cumulative IPC: 0.379209 (Simulation time: 0 hr 18 min 55 sec) 
Heartbeat CPU 0 instructions: 560000000 cycles: 1255009866 heartbeat IPC: 0.36687 cumulative IPC: 0.378931 (Simulation time: 0 hr 19 min 15 sec) 
Heartbeat CPU 0 instructions: 570000000 cycles: 1291107397 heartbeat IPC: 0.277027 cumulative IPC: 0.375989 (Simulation time: 0 hr 19 min 37 sec) 
Heartbeat CPU 0 instructions: 580000001 cycles: 1318988594 heartbeat IPC: 0.358665 cumulative IPC: 0.375611 (Simulation time: 0 hr 19 min 57 sec) 
Heartbeat CPU 0 instructions: 590000000 cycles: 1347343932 heartbeat IPC: 0.352667 cumulative IPC: 0.375113 (Simulation time: 0 hr 20 min 17 sec) 
Heartbeat CPU 0 instructions: 600000000 cycles: 1375450154 heartbeat IPC: 0.355793 cumulative IPC: 0.374706 (Simulation time: 0 hr 20 min 38 sec) 
Heartbeat CPU 0 instructions: 610000001 cycles: 1403569459 heartbeat IPC: 0.355628 cumulative IPC: 0.374312 (Simulation time: 0 hr 20 min 58 sec) 
Heartbeat CPU 0 instructions: 620000001 cycles: 1430863643 heartbeat IPC: 0.366378 cumulative IPC: 0.374156 (Simulation time: 0 hr 21 min 18 sec) 
Heartbeat CPU 0 instructions: 630000001 cycles: 1458915733 heartbeat IPC: 0.35648 cumulative IPC: 0.373807 (Simulation time: 0 hr 21 min 39 sec) 
Heartbeat CPU 0 instructions: 640000002 cycles: 1486917363 heartbeat IPC: 0.357122 cumulative IPC: 0.373483 (Simulation time: 0 hr 21 min 59 sec) 
Heartbeat CPU 0 instructions: 650000000 cycles: 1514395891 heartbeat IPC: 0.36392 cumulative IPC: 0.373305 (Simulation time: 0 hr 22 min 19 sec) 
Heartbeat CPU 0 instructions: 660000000 cycles: 1542279044 heartbeat IPC: 0.35864 cumulative IPC: 0.373033 (Simulation time: 0 hr 22 min 39 sec) 
Heartbeat CPU 0 instructions: 670000000 cycles: 1570167491 heartbeat IPC: 0.358571 cumulative IPC: 0.372769 (Simulation time: 0 hr 23 min 0 sec) 
Heartbeat CPU 0 instructions: 680000000 cycles: 1598098460 heartbeat IPC: 0.358026 cumulative IPC: 0.372504 (Simulation time: 0 hr 23 min 20 sec) 
Heartbeat CPU 0 instructions: 690000002 cycles: 1625446042 heartbeat IPC: 0.365663 cumulative IPC: 0.372386 (Simulation time: 0 hr 23 min 40 sec) 
Heartbeat CPU 0 instructions: 700000000 cycles: 1653561083 heartbeat IPC: 0.355681 cumulative IPC: 0.372095 (Simulation time: 0 hr 24 min 0 sec) 
Heartbeat CPU 0 instructions: 710000000 cycles: 1681443523 heartbeat IPC: 0.358649 cumulative IPC: 0.371867 (Simulation time: 0 hr 24 min 21 sec) 
Heartbeat CPU 0 instructions: 720000000 cycles: 1709571636 heartbeat IPC: 0.355516 cumulative IPC: 0.371591 (Simulation time: 0 hr 24 min 41 sec) 
Heartbeat CPU 0 instructions: 730000000 cycles: 1737931137 heartbeat IPC: 0.352616 cumulative IPC: 0.371274 (Simulation time: 0 hr 25 min 1 sec) 
Heartbeat CPU 0 instructions: 740000002 cycles: 1765831019 heartbeat IPC: 0.358425 cumulative IPC: 0.371066 (Simulation time: 0 hr 25 min 22 sec) 
Heartbeat CPU 0 instructions: 750000001 cycles: 1793642885 heartbeat IPC: 0.359559 cumulative IPC: 0.370883 (Simulation time: 0 hr 25 min 42 sec) 
Heartbeat CPU 0 instructions: 760000002 cycles: 1822060427 heartbeat IPC: 0.351895 cumulative IPC: 0.37058 (Simulation time: 0 hr 26 min 2 sec) 
Heartbeat CPU 0 instructions: 770000000 cycles: 1850464270 heartbeat IPC: 0.352065 cumulative IPC: 0.37029 (Simulation time: 0 hr 26 min 22 sec) 
Heartbeat CPU 0 instructions: 780000002 cycles: 1878835219 heartbeat IPC: 0.352473 cumulative IPC: 0.370015 (Simulation time: 0 hr 26 min 43 sec) 
Heartbeat CPU 0 instructions: 790000001 cycles: 1907098538 heartbeat IPC: 0.353815 cumulative IPC: 0.369769 (Simulation time: 0 hr 27 min 4 sec) 
Heartbeat CPU 0 instructions: 800000000 cycles: 1937304169 heartbeat IPC: 0.331064 cumulative IPC: 0.369153 (Simulation time: 0 hr 27 min 27 sec) 
Heartbeat CPU 0 instructions: 810000003 cycles: 1966861977 heartbeat IPC: 0.33832 cumulative IPC: 0.368679 (Simulation time: 0 hr 27 min 48 sec) 
Heartbeat CPU 0 instructions: 820000002 cycles: 1996420761 heartbeat IPC: 0.338309 cumulative IPC: 0.36822 (Simulation time: 0 hr 28 min 10 sec) 
Heartbeat CPU 0 instructions: 830000000 cycles: 2026402364 heartbeat IPC: 0.333538 cumulative IPC: 0.367697 (Simulation time: 0 hr 28 min 32 sec) 
Heartbeat CPU 0 instructions: 840000001 cycles: 2055929575 heartbeat IPC: 0.338671 cumulative IPC: 0.367271 (Simulation time: 0 hr 28 min 55 sec) 
Heartbeat CPU 0 instructions: 850000001 cycles: 2087230258 heartbeat IPC: 0.319482 cumulative IPC: 0.36654 (Simulation time: 0 hr 29 min 17 sec) 
Heartbeat CPU 0 instructions: 860000002 cycles: 2117596783 heartbeat IPC: 0.32931 cumulative IPC: 0.365996 (Simulation time: 0 hr 29 min 40 sec) 
Heartbeat CPU 0 instructions: 870000001 cycles: 2147992750 heartbeat IPC: 0.328991 cumulative IPC: 0.365462 (Simulation time: 0 hr 30 min 3 sec) 
Heartbeat CPU 0 instructions: 880000000 cycles: 2178409469 heartbeat IPC: 0.328767 cumulative IPC: 0.36494 (Simulation time: 0 hr 30 min 26 sec) 
Heartbeat CPU 0 instructions: 890000000 cycles: 2209095936 heartbeat IPC: 0.325877 cumulative IPC: 0.364387 (Simulation time: 0 hr 30 min 49 sec) 
Heartbeat CPU 0 instructions: 900000000 cycles: 2239619509 heartbeat IPC: 0.327616 cumulative IPC: 0.363876 (Simulation time: 0 hr 31 min 12 sec) 
Heartbeat CPU 0 instructions: 910000003 cycles: 2269709093 heartbeat IPC: 0.332341 cumulative IPC: 0.363451 (Simulation time: 0 hr 31 min 35 sec) 
Heartbeat CPU 0 instructions: 920000001 cycles: 2300608840 heartbeat IPC: 0.323627 cumulative IPC: 0.362906 (Simulation time: 0 hr 31 min 58 sec) 
Heartbeat CPU 0 instructions: 930000003 cycles: 2331140558 heartbeat IPC: 0.327528 cumulative IPC: 0.362434 (Simulation time: 0 hr 32 min 21 sec) 
Heartbeat CPU 0 instructions: 940000000 cycles: 2361821985 heartbeat IPC: 0.32593 cumulative IPC: 0.361952 (Simulation time: 0 hr 32 min 44 sec) 
Heartbeat CPU 0 instructions: 950000003 cycles: 2392741686 heartbeat IPC: 0.323418 cumulative IPC: 0.361445 (Simulation time: 0 hr 33 min 7 sec) 
Heartbeat CPU 0 instructions: 960000001 cycles: 2423387741 heartbeat IPC: 0.326306 cumulative IPC: 0.360993 (Simulation time: 0 hr 33 min 30 sec) 
Heartbeat CPU 0 instructions: 970000002 cycles: 2454650298 heartbeat IPC: 0.319871 cumulative IPC: 0.36046 (Simulation time: 0 hr 33 min 53 sec) 
Heartbeat CPU 0 instructions: 980000003 cycles: 2485425556 heartbeat IPC: 0.324936 cumulative IPC: 0.360013 (Simulation time: 0 hr 34 min 16 sec) 
Heartbeat CPU 0 instructions: 990000000 cycles: 2515793368 heartbeat IPC: 0.329296 cumulative IPC: 0.359636 (Simulation time: 0 hr 34 min 39 sec) 
Heartbeat CPU 0 instructions: 1000000002 cycles: 2546164906 heartbeat IPC: 0.329256 cumulative IPC: 0.359268 (Simulation time: 0 hr 35 min 2 sec) 
Heartbeat CPU 0 instructions: 1010000002 cycles: 2576558660 heartbeat IPC: 0.329015 cumulative IPC: 0.358905 (Simulation time: 0 hr 35 min 25 sec) 
Heartbeat CPU 0 instructions: 1020000002 cycles: 2607351693 heartbeat IPC: 0.324749 cumulative IPC: 0.358495 (Simulation time: 0 hr 35 min 48 sec) 
Heartbeat CPU 0 instructions: 1030000003 cycles: 2637427053 heartbeat IPC: 0.332498 cumulative IPC: 0.358194 (Simulation time: 0 hr 36 min 10 sec) 
Heartbeat CPU 0 instructions: 1040000001 cycles: 2667491842 heartbeat IPC: 0.332615 cumulative IPC: 0.357901 (Simulation time: 0 hr 36 min 32 sec) 
Heartbeat CPU 0 instructions: 1050000001 cycles: 2697388277 heartbeat IPC: 0.334488 cumulative IPC: 0.357638 (Simulation time: 0 hr 36 min 54 sec) 
Heartbeat CPU 0 instructions: 1060000000 cycles: 2727357143 heartbeat IPC: 0.33368 cumulative IPC: 0.357371 (Simulation time: 0 hr 37 min 17 sec) 
Heartbeat CPU 0 instructions: 1070000003 cycles: 2757136777 heartbeat IPC: 0.3358 cumulative IPC: 0.357134 (Simulation time: 0 hr 37 min 39 sec) 
Heartbeat CPU 0 instructions: 1080000000 cycles: 2786788556 heartbeat IPC: 0.337248 cumulative IPC: 0.356919 (Simulation time: 0 hr 38 min 1 sec) 
Heartbeat CPU 0 instructions: 1090000002 cycles: 2816909706 heartbeat IPC: 0.331993 cumulative IPC: 0.356649 (Simulation time: 0 hr 38 min 23 sec) 
Heartbeat CPU 0 instructions: 1100000000 cycles: 2846197415 heartbeat IPC: 0.34144 cumulative IPC: 0.35649 (Simulation time: 0 hr 38 min 45 sec) 
Finished CPU 0 instructions: 1000000000 cycles: 2805127350 cumulative IPC: 0.35649 (Simulation time: 0 hr 38 min 45 sec) 

ChampSim completed all CPUs

Region of Interest Statistics

CPU 0 cumulative IPC: 0.35649 instructions: 1000000000 cycles: 2805127350
L1D TOTAL     ACCESS:  372172665  HIT:  329056259  MISS:   43116406
L1D LOAD      ACCESS:  263307673  HIT:  224087283  MISS:   39220390
L1D RFO       ACCESS:  108864992  HIT:  104968976  MISS:    3896016
L1D PREFETCH  ACCESS:          0  HIT:          0  MISS:          0
L1D WRITEBACK ACCESS:          0  HIT:          0  MISS:          0
L1D PREFETCH  REQUESTED:          0  ISSUED:          0  USEFUL:          0  USELESS:          0
L1D AVERAGE MISS LATENCY: 79.1335 cycles
L1I TOTAL     ACCESS:  194988649  HIT:  194988647  MISS:          2
L1I LOAD      ACCESS:  194988649  HIT:  194988647  MISS:          2
L1I RFO       ACCESS:          0  HIT:          0  MISS:          0
L1I PREFETCH  ACCESS:          0  HIT:          0  MISS:          0
L1I WRITEBACK ACCESS:          0  HIT:          0  MISS:          0
L1I PREFETCH  REQUESTED:          0  ISSUED:          0  USEFUL:          0  USELESS:          0
L1I AVERAGE MISS LATENCY: 235 cycles
L2C TOTAL     ACCESS:   49086058  HIT:   18171622  MISS:   30914436
L2C LOAD      ACCESS:   39220270  HIT:   11186833  MISS:   28033437
L2C RFO       ACCESS:    3895949  HIT:    1021143  MISS:    2874806
L2C PREFETCH  ACCESS:          0  HIT:          0  MISS:          0
L2C WRITEBACK ACCESS:    5969839  HIT:    5963646  MISS:       6193
L2C PREFETCH  REQUESTED:          0  ISSUED:          0  USEFUL:          0  USELESS:          0
L2C AVERAGE MISS LATENCY: 93.2988 cycles
LLC TOTAL     ACCESS:   35168785  HIT:   23285678  MISS:   11883107
LLC LOAD      ACCESS:   28033341  HIT:   16169330  MISS:   11864011
LLC RFO       ACCESS:    2874711  HIT:    2856812  MISS:      17899
LLC PREFETCH  ACCESS:          0  HIT:          0  MISS:          0
LLC WRITEBACK ACCESS:    4260733  HIT:    4259536  MISS:       1197
LLC PREFETCH  REQUESTED:          0  ISSUED:          0  USEFUL:          0  USELESS:          0
LLC AVERAGE MISS LATENCY: 137.321 cycles
Major fault: 0 Minor fault: 151086

DRAM Statistics
 CHANNEL 0
 RQ ROW_BUFFER_HIT:    5978372  ROW_BUFFER_MISS:    5903499
 DBUS_CONGESTED:    1788958
 WQ ROW_BUFFER_HIT:      49185  ROW_BUFFER_MISS:     103151  FULL:          0

 AVG_CONGESTED_CYCLE: 5

CPU 0 Branch Prediction Accuracy: 88.8495% MPKI: 28.0155 Average ROB Occupancy at Mispredict: 14.8644

Branch types
NOT_BRANCH: 748751390 74.8751%
BRANCH_DIRECT_JUMP: 26840018 2.684%
BRANCH_INDIRECT: 0 0%
BRANCH_CONDITIONAL: 170587008 17.0587%
BRANCH_DIRECT_CALL: 25420991 2.5421%
BRANCH_INDIRECT_CALL: 1489642 0.148964%
BRANCH_RETURN: 26910634 2.69106%
BRANCH_OTHER: 0 0%

