
*** ChampSim Multicore Out-of-Order Simulator ***

Warmup Instructions: 100000000
Simulation Instructions: 1000000000
Number of CPUs: 1
LLC sets: 2048
LLC ways: 16
Off-chip DRAM Size: 4096 MB Channels: 1 Width: 64-bit Data Rate: 3200 MT/s

CPU 0 runs /scratch/user/kevin.weston/dpc3-traces/605.champsimtrace.xz
CPU 0 Bimodal branch predictor
Initialize SHIP state
Assign rand_sets[0]: 454  LLC: 2048
rand_sets[0]: 454
Assign rand_sets[1]: 1662  LLC: 2048
rand_sets[1]: 1662
Assign rand_sets[2]: 1921  LLC: 2048
rand_sets[2]: 1921
Assign rand_sets[3]: 1131  LLC: 2048
rand_sets[3]: 1131
Assign rand_sets[4]: 331  LLC: 2048
rand_sets[4]: 331
Assign rand_sets[5]: 1531  LLC: 2048
rand_sets[5]: 1531
Assign rand_sets[6]: 482  LLC: 2048
rand_sets[6]: 482
Assign rand_sets[7]: 1275  LLC: 2048
rand_sets[7]: 1275
Assign rand_sets[8]: 1876  LLC: 2048
rand_sets[8]: 1876
Assign rand_sets[9]: 2038  LLC: 2048
rand_sets[9]: 2038
Assign rand_sets[10]: 701  LLC: 2048
rand_sets[10]: 701
Assign rand_sets[11]: 479  LLC: 2048
rand_sets[11]: 479
Assign rand_sets[12]: 892  LLC: 2048
rand_sets[12]: 892
Assign rand_sets[13]: 1820  LLC: 2048
rand_sets[13]: 1820
Assign rand_sets[14]: 1505  LLC: 2048
rand_sets[14]: 1505
Assign rand_sets[15]: 1159  LLC: 2048
rand_sets[15]: 1159
Assign rand_sets[16]: 513  LLC: 2048
rand_sets[16]: 513
Assign rand_sets[17]: 703  LLC: 2048
rand_sets[17]: 703
Assign rand_sets[18]: 561  LLC: 2048
rand_sets[18]: 561
Assign rand_sets[19]: 990  LLC: 2048
rand_sets[19]: 990
Assign rand_sets[20]: 342  LLC: 2048
rand_sets[20]: 342
Assign rand_sets[21]: 882  LLC: 2048
rand_sets[21]: 882
Assign rand_sets[22]: 15  LLC: 2048
rand_sets[22]: 15
Assign rand_sets[23]: 71  LLC: 2048
rand_sets[23]: 71
Assign rand_sets[24]: 1127  LLC: 2048
rand_sets[24]: 1127
Assign rand_sets[25]: 1382  LLC: 2048
rand_sets[25]: 1382
Assign rand_sets[26]: 647  LLC: 2048
rand_sets[26]: 647
Assign rand_sets[27]: 857  LLC: 2048
rand_sets[27]: 857
Assign rand_sets[28]: 1450  LLC: 2048
rand_sets[28]: 1450
Assign rand_sets[29]: 1160  LLC: 2048
rand_sets[29]: 1160
Assign rand_sets[30]: 1852  LLC: 2048
rand_sets[30]: 1852
Assign rand_sets[31]: 1881  LLC: 2048
rand_sets[31]: 1881
Assign rand_sets[32]: 1770  LLC: 2048
rand_sets[32]: 1770
Assign rand_sets[33]: 1622  LLC: 2048
rand_sets[33]: 1622
Assign rand_sets[34]: 275  LLC: 2048
rand_sets[34]: 275
Assign rand_sets[35]: 635  LLC: 2048
rand_sets[35]: 635
Assign rand_sets[36]: 466  LLC: 2048
rand_sets[36]: 466
Assign rand_sets[37]: 1413  LLC: 2048
rand_sets[37]: 1413
Assign rand_sets[38]: 417  LLC: 2048
rand_sets[38]: 417
Assign rand_sets[39]: 472  LLC: 2048
rand_sets[39]: 472
Assign rand_sets[40]: 1340  LLC: 2048
rand_sets[40]: 1340
Assign rand_sets[41]: 852  LLC: 2048
rand_sets[41]: 852
Assign rand_sets[42]: 1365  LLC: 2048
rand_sets[42]: 1365
Assign rand_sets[43]: 47  LLC: 2048
rand_sets[43]: 47
Assign rand_sets[44]: 823  LLC: 2048
rand_sets[44]: 823
Assign rand_sets[45]: 686  LLC: 2048
rand_sets[45]: 686
Assign rand_sets[46]: 1637  LLC: 2048
rand_sets[46]: 1637
Assign rand_sets[47]: 1115  LLC: 2048
rand_sets[47]: 1115
Assign rand_sets[48]: 986  LLC: 2048
rand_sets[48]: 986
Assign rand_sets[49]: 258  LLC: 2048
rand_sets[49]: 258
Assign rand_sets[50]: 633  LLC: 2048
rand_sets[50]: 633
Assign rand_sets[51]: 920  LLC: 2048
rand_sets[51]: 920
Assign rand_sets[52]: 204  LLC: 2048
rand_sets[52]: 204
Assign rand_sets[53]: 227  LLC: 2048
rand_sets[53]: 227
Assign rand_sets[54]: 1818  LLC: 2048
rand_sets[54]: 1818
Assign rand_sets[55]: 886  LLC: 2048
rand_sets[55]: 886
Assign rand_sets[56]: 1422  LLC: 2048
rand_sets[56]: 1422
Assign rand_sets[57]: 607  LLC: 2048
rand_sets[57]: 607
Assign rand_sets[58]: 217  LLC: 2048
rand_sets[58]: 217
Assign rand_sets[59]: 1945  LLC: 2048
rand_sets[59]: 1945
Assign rand_sets[60]: 143  LLC: 2048
rand_sets[60]: 143
Assign rand_sets[61]: 1311  LLC: 2048
rand_sets[61]: 1311
Assign rand_sets[62]: 319  LLC: 2048
rand_sets[62]: 319
Assign rand_sets[63]: 1846  LLC: 2048
rand_sets[63]: 1846
Assign rand_sets[64]: 238  LLC: 2048
rand_sets[64]: 238
Assign rand_sets[65]: 67  LLC: 2048
rand_sets[65]: 67
Assign rand_sets[66]: 1912  LLC: 2048
rand_sets[66]: 1912
Assign rand_sets[67]: 1613  LLC: 2048
rand_sets[67]: 1613
Assign rand_sets[68]: 1293  LLC: 2048
rand_sets[68]: 1293
Assign rand_sets[69]: 1018  LLC: 2048
rand_sets[69]: 1018
Assign rand_sets[70]: 1982  LLC: 2048
rand_sets[70]: 1982
Assign rand_sets[71]: 1702  LLC: 2048
rand_sets[71]: 1702
Assign rand_sets[72]: 1498  LLC: 2048
rand_sets[72]: 1498
Assign rand_sets[73]: 228  LLC: 2048
rand_sets[73]: 228
Assign rand_sets[74]: 1414  LLC: 2048
rand_sets[74]: 1414
Assign rand_sets[75]: 1166  LLC: 2048
rand_sets[75]: 1166
Assign rand_sets[76]: 732  LLC: 2048
rand_sets[76]: 732
Assign rand_sets[77]: 297  LLC: 2048
rand_sets[77]: 297
Assign rand_sets[78]: 1133  LLC: 2048
rand_sets[78]: 1133
Assign rand_sets[79]: 846  LLC: 2048
rand_sets[79]: 846
Assign rand_sets[80]: 767  LLC: 2048
rand_sets[80]: 767
Assign rand_sets[81]: 1878  LLC: 2048
rand_sets[81]: 1878
Assign rand_sets[82]: 993  LLC: 2048
rand_sets[82]: 993
Assign rand_sets[83]: 1392  LLC: 2048
rand_sets[83]: 1392
Assign rand_sets[84]: 1568  LLC: 2048
rand_sets[84]: 1568
Assign rand_sets[85]: 1787  LLC: 2048
rand_sets[85]: 1787
Assign rand_sets[86]: 399  LLC: 2048
rand_sets[86]: 399
Assign rand_sets[87]: 1201  LLC: 2048
rand_sets[87]: 1201
Assign rand_sets[88]: 856  LLC: 2048
rand_sets[88]: 856
Assign rand_sets[89]: 773  LLC: 2048
rand_sets[89]: 773
Assign rand_sets[90]: 1680  LLC: 2048
rand_sets[90]: 1680
Assign rand_sets[91]: 1477  LLC: 2048
rand_sets[91]: 1477
Assign rand_sets[92]: 9  LLC: 2048
rand_sets[92]: 9
Assign rand_sets[93]: 1500  LLC: 2048
rand_sets[93]: 1500
Assign rand_sets[94]: 851  LLC: 2048
rand_sets[94]: 851
Assign rand_sets[95]: 973  LLC: 2048
rand_sets[95]: 973
Assign rand_sets[96]: 938  LLC: 2048
rand_sets[96]: 938
Assign rand_sets[97]: 1851  LLC: 2048
rand_sets[97]: 1851
Assign rand_sets[98]: 1608  LLC: 2048
rand_sets[98]: 1608
Assign rand_sets[99]: 1945  LLC: 2048
Assign rand_sets[99]: 1106  LLC: 2048
rand_sets[99]: 1106
Assign rand_sets[100]: 979  LLC: 2048
rand_sets[100]: 979
Assign rand_sets[101]: 338  LLC: 2048
rand_sets[101]: 338
Assign rand_sets[102]: 1693  LLC: 2048
rand_sets[102]: 1693
Assign rand_sets[103]: 6  LLC: 2048
rand_sets[103]: 6
Assign rand_sets[104]: 671  LLC: 2048
rand_sets[104]: 671
Assign rand_sets[105]: 490  LLC: 2048
rand_sets[105]: 490
Assign rand_sets[106]: 1461  LLC: 2048
rand_sets[106]: 1461
Assign rand_sets[107]: 1730  LLC: 2048
rand_sets[107]: 1730
Assign rand_sets[108]: 1030  LLC: 2048
rand_sets[108]: 1030
Assign rand_sets[109]: 19  LLC: 2048
rand_sets[109]: 19
Assign rand_sets[110]: 920  LLC: 2048
Assign rand_sets[110]: 329  LLC: 2048
rand_sets[110]: 329
Assign rand_sets[111]: 1714  LLC: 2048
rand_sets[111]: 1714
Assign rand_sets[112]: 1  LLC: 2048
rand_sets[112]: 1
Assign rand_sets[113]: 1822  LLC: 2048
rand_sets[113]: 1822
Assign rand_sets[114]: 172  LLC: 2048
rand_sets[114]: 172
Assign rand_sets[115]: 1586  LLC: 2048
rand_sets[115]: 1586
Assign rand_sets[116]: 648  LLC: 2048
rand_sets[116]: 648
Assign rand_sets[117]: 1329  LLC: 2048
rand_sets[117]: 1329
Assign rand_sets[118]: 668  LLC: 2048
rand_sets[118]: 668
Assign rand_sets[119]: 1874  LLC: 2048
rand_sets[119]: 1874
Assign rand_sets[120]: 70  LLC: 2048
rand_sets[120]: 70
Assign rand_sets[121]: 661  LLC: 2048
rand_sets[121]: 661
Assign rand_sets[122]: 1649  LLC: 2048
rand_sets[122]: 1649
Assign rand_sets[123]: 1590  LLC: 2048
rand_sets[123]: 1590
Assign rand_sets[124]: 911  LLC: 2048
rand_sets[124]: 911
Assign rand_sets[125]: 1367  LLC: 2048
rand_sets[125]: 1367
Assign rand_sets[126]: 1782  LLC: 2048
rand_sets[126]: 1782
Assign rand_sets[127]: 569  LLC: 2048
rand_sets[127]: 569
Heartbeat CPU 0 instructions: 10000000 cycles: 4113945 heartbeat IPC: 2.43076 cumulative IPC: 2.43076 (Simulation time: 0 hr 0 min 26 sec) 
Heartbeat CPU 0 instructions: 20000000 cycles: 8235128 heartbeat IPC: 2.42649 cumulative IPC: 2.42862 (Simulation time: 0 hr 0 min 52 sec) 
Heartbeat CPU 0 instructions: 30000002 cycles: 12341807 heartbeat IPC: 2.43506 cumulative IPC: 2.43076 (Simulation time: 0 hr 1 min 18 sec) 
Heartbeat CPU 0 instructions: 40000000 cycles: 16452017 heartbeat IPC: 2.43297 cumulative IPC: 2.43131 (Simulation time: 0 hr 1 min 44 sec) 
Heartbeat CPU 0 instructions: 50000000 cycles: 20557819 heartbeat IPC: 2.43558 cumulative IPC: 2.43216 (Simulation time: 0 hr 2 min 11 sec) 
Heartbeat CPU 0 instructions: 60000003 cycles: 24665199 heartbeat IPC: 2.43464 cumulative IPC: 2.43258 (Simulation time: 0 hr 2 min 37 sec) 
Heartbeat CPU 0 instructions: 70000003 cycles: 28777320 heartbeat IPC: 2.43184 cumulative IPC: 2.43247 (Simulation time: 0 hr 3 min 3 sec) 
Heartbeat CPU 0 instructions: 80000000 cycles: 32888465 heartbeat IPC: 2.43241 cumulative IPC: 2.43246 (Simulation time: 0 hr 3 min 29 sec) 
Heartbeat CPU 0 instructions: 90000000 cycles: 37006319 heartbeat IPC: 2.42845 cumulative IPC: 2.43202 (Simulation time: 0 hr 3 min 55 sec) 
Heartbeat CPU 0 instructions: 100000000 cycles: 41097408 heartbeat IPC: 2.44434 cumulative IPC: 2.43324 (Simulation time: 0 hr 4 min 22 sec) 

Warmup complete CPU 0 instructions: 100000002 cycles: 41097409 (Simulation time: 0 hr 4 min 22 sec) 

Heartbeat CPU 0 instructions: 110000000 cycles: 68131368 heartbeat IPC: 0.369905 cumulative IPC: 0.369905 (Simulation time: 0 hr 4 min 44 sec) 
Heartbeat CPU 0 instructions: 120000000 cycles: 95040467 heartbeat IPC: 0.371622 cumulative IPC: 0.370761 (Simulation time: 0 hr 5 min 7 sec) 
Heartbeat CPU 0 instructions: 130000000 cycles: 121739984 heartbeat IPC: 0.374539 cumulative IPC: 0.372012 (Simulation time: 0 hr 5 min 29 sec) 
Heartbeat CPU 0 instructions: 140000002 cycles: 149164352 heartbeat IPC: 0.364639 cumulative IPC: 0.370141 (Simulation time: 0 hr 5 min 52 sec) 
Heartbeat CPU 0 instructions: 150000000 cycles: 176585426 heartbeat IPC: 0.364683 cumulative IPC: 0.369036 (Simulation time: 0 hr 6 min 14 sec) 
Heartbeat CPU 0 instructions: 160000000 cycles: 203681507 heartbeat IPC: 0.369057 cumulative IPC: 0.36904 (Simulation time: 0 hr 6 min 37 sec) 
Heartbeat CPU 0 instructions: 170000000 cycles: 231488242 heartbeat IPC: 0.359625 cumulative IPC: 0.367665 (Simulation time: 0 hr 7 min 0 sec) 
Heartbeat CPU 0 instructions: 180000001 cycles: 258567613 heartbeat IPC: 0.369285 cumulative IPC: 0.367866 (Simulation time: 0 hr 7 min 22 sec) 
Heartbeat CPU 0 instructions: 190000002 cycles: 285829457 heartbeat IPC: 0.366813 cumulative IPC: 0.367749 (Simulation time: 0 hr 7 min 45 sec) 
Heartbeat CPU 0 instructions: 200000000 cycles: 313229310 heartbeat IPC: 0.364965 cumulative IPC: 0.367469 (Simulation time: 0 hr 8 min 7 sec) 
Heartbeat CPU 0 instructions: 210000003 cycles: 340632991 heartbeat IPC: 0.364915 cumulative IPC: 0.367235 (Simulation time: 0 hr 8 min 30 sec) 
Heartbeat CPU 0 instructions: 220000000 cycles: 367432848 heartbeat IPC: 0.373136 cumulative IPC: 0.36772 (Simulation time: 0 hr 8 min 53 sec) 
Heartbeat CPU 0 instructions: 230000000 cycles: 395570012 heartbeat IPC: 0.355402 cumulative IPC: 0.366742 (Simulation time: 0 hr 9 min 16 sec) 
Heartbeat CPU 0 instructions: 240000000 cycles: 422267217 heartbeat IPC: 0.374571 cumulative IPC: 0.36729 (Simulation time: 0 hr 9 min 38 sec) 
Heartbeat CPU 0 instructions: 250000001 cycles: 449436096 heartbeat IPC: 0.368068 cumulative IPC: 0.367342 (Simulation time: 0 hr 10 min 1 sec) 
Heartbeat CPU 0 instructions: 260000002 cycles: 476751335 heartbeat IPC: 0.366096 cumulative IPC: 0.367264 (Simulation time: 0 hr 10 min 24 sec) 
Heartbeat CPU 0 instructions: 270000000 cycles: 504017432 heartbeat IPC: 0.366756 cumulative IPC: 0.367234 (Simulation time: 0 hr 10 min 46 sec) 
Heartbeat CPU 0 instructions: 280000001 cycles: 531319713 heartbeat IPC: 0.36627 cumulative IPC: 0.36718 (Simulation time: 0 hr 11 min 9 sec) 
Heartbeat CPU 0 instructions: 290000003 cycles: 558056600 heartbeat IPC: 0.374015 cumulative IPC: 0.367534 (Simulation time: 0 hr 11 min 31 sec) 
Heartbeat CPU 0 instructions: 300000000 cycles: 585073188 heartbeat IPC: 0.370143 cumulative IPC: 0.367663 (Simulation time: 0 hr 11 min 54 sec) 
Heartbeat CPU 0 instructions: 310000000 cycles: 610525450 heartbeat IPC: 0.392892 cumulative IPC: 0.368791 (Simulation time: 0 hr 12 min 17 sec) 
Heartbeat CPU 0 instructions: 320000001 cycles: 636996640 heartbeat IPC: 0.377769 cumulative IPC: 0.36919 (Simulation time: 0 hr 12 min 40 sec) 
Heartbeat CPU 0 instructions: 330000000 cycles: 663165845 heartbeat IPC: 0.382129 cumulative IPC: 0.369734 (Simulation time: 0 hr 13 min 2 sec) 
Heartbeat CPU 0 instructions: 340000003 cycles: 689167088 heartbeat IPC: 0.384597 cumulative IPC: 0.370331 (Simulation time: 0 hr 13 min 25 sec) 
Heartbeat CPU 0 instructions: 350000003 cycles: 715178608 heartbeat IPC: 0.384445 cumulative IPC: 0.370875 (Simulation time: 0 hr 13 min 47 sec) 
Heartbeat CPU 0 instructions: 360000001 cycles: 740943667 heartbeat IPC: 0.388122 cumulative IPC: 0.37151 (Simulation time: 0 hr 14 min 10 sec) 
Heartbeat CPU 0 instructions: 370000002 cycles: 766685710 heartbeat IPC: 0.38847 cumulative IPC: 0.372112 (Simulation time: 0 hr 14 min 32 sec) 
Heartbeat CPU 0 instructions: 380000001 cycles: 792783747 heartbeat IPC: 0.383171 cumulative IPC: 0.372496 (Simulation time: 0 hr 14 min 55 sec) 
Heartbeat CPU 0 instructions: 390000000 cycles: 818760190 heartbeat IPC: 0.384964 cumulative IPC: 0.372912 (Simulation time: 0 hr 15 min 18 sec) 
Heartbeat CPU 0 instructions: 400000001 cycles: 844671907 heartbeat IPC: 0.385926 cumulative IPC: 0.373332 (Simulation time: 0 hr 15 min 40 sec) 
Heartbeat CPU 0 instructions: 410000000 cycles: 870725163 heartbeat IPC: 0.383829 cumulative IPC: 0.373662 (Simulation time: 0 hr 16 min 3 sec) 
Heartbeat CPU 0 instructions: 420000003 cycles: 896793495 heartbeat IPC: 0.383607 cumulative IPC: 0.373965 (Simulation time: 0 hr 16 min 26 sec) 
Heartbeat CPU 0 instructions: 430000000 cycles: 922955679 heartbeat IPC: 0.382231 cumulative IPC: 0.37421 (Simulation time: 0 hr 16 min 48 sec) 
Heartbeat CPU 0 instructions: 440000000 cycles: 948889381 heartbeat IPC: 0.385599 cumulative IPC: 0.374535 (Simulation time: 0 hr 17 min 11 sec) 
Heartbeat CPU 0 instructions: 450000002 cycles: 975401100 heartbeat IPC: 0.377192 cumulative IPC: 0.374611 (Simulation time: 0 hr 17 min 33 sec) 
Heartbeat CPU 0 instructions: 460000001 cycles: 1002030011 heartbeat IPC: 0.375532 cumulative IPC: 0.374636 (Simulation time: 0 hr 17 min 56 sec) 
Heartbeat CPU 0 instructions: 470000003 cycles: 1029282284 heartbeat IPC: 0.366942 cumulative IPC: 0.374424 (Simulation time: 0 hr 18 min 19 sec) 
Heartbeat CPU 0 instructions: 480000000 cycles: 1055993739 heartbeat IPC: 0.374371 cumulative IPC: 0.374422 (Simulation time: 0 hr 18 min 41 sec) 
Heartbeat CPU 0 instructions: 490000003 cycles: 1082869634 heartbeat IPC: 0.372081 cumulative IPC: 0.374362 (Simulation time: 0 hr 19 min 4 sec) 
Heartbeat CPU 0 instructions: 500000000 cycles: 1110311813 heartbeat IPC: 0.364402 cumulative IPC: 0.374106 (Simulation time: 0 hr 19 min 27 sec) 
Heartbeat CPU 0 instructions: 510000001 cycles: 1136904577 heartbeat IPC: 0.376042 cumulative IPC: 0.374153 (Simulation time: 0 hr 19 min 50 sec) 
Heartbeat CPU 0 instructions: 520000000 cycles: 1163640404 heartbeat IPC: 0.37403 cumulative IPC: 0.37415 (Simulation time: 0 hr 20 min 12 sec) 
Heartbeat CPU 0 instructions: 530000003 cycles: 1190981667 heartbeat IPC: 0.365748 cumulative IPC: 0.373951 (Simulation time: 0 hr 20 min 35 sec) 
Heartbeat CPU 0 instructions: 540000001 cycles: 1217821326 heartbeat IPC: 0.372583 cumulative IPC: 0.373919 (Simulation time: 0 hr 20 min 58 sec) 
Heartbeat CPU 0 instructions: 550000000 cycles: 1245236328 heartbeat IPC: 0.364764 cumulative IPC: 0.373711 (Simulation time: 0 hr 21 min 20 sec) 
Heartbeat CPU 0 instructions: 560000000 cycles: 1272722247 heartbeat IPC: 0.363823 cumulative IPC: 0.37349 (Simulation time: 0 hr 21 min 43 sec) 
Heartbeat CPU 0 instructions: 570000000 cycles: 1308202397 heartbeat IPC: 0.281848 cumulative IPC: 0.370924 (Simulation time: 0 hr 22 min 7 sec) 
Heartbeat CPU 0 instructions: 580000001 cycles: 1336352860 heartbeat IPC: 0.355234 cumulative IPC: 0.370583 (Simulation time: 0 hr 22 min 30 sec) 
Heartbeat CPU 0 instructions: 590000000 cycles: 1364670288 heartbeat IPC: 0.353139 cumulative IPC: 0.37021 (Simulation time: 0 hr 22 min 54 sec) 
Heartbeat CPU 0 instructions: 600000000 cycles: 1392702946 heartbeat IPC: 0.356727 cumulative IPC: 0.36993 (Simulation time: 0 hr 23 min 17 sec) 
Heartbeat CPU 0 instructions: 610000001 cycles: 1420675008 heartbeat IPC: 0.3575 cumulative IPC: 0.369678 (Simulation time: 0 hr 23 min 40 sec) 
Heartbeat CPU 0 instructions: 620000001 cycles: 1447937622 heartbeat IPC: 0.366803 cumulative IPC: 0.369623 (Simulation time: 0 hr 24 min 3 sec) 
Heartbeat CPU 0 instructions: 630000001 cycles: 1475851114 heartbeat IPC: 0.35825 cumulative IPC: 0.369401 (Simulation time: 0 hr 24 min 26 sec) 
Heartbeat CPU 0 instructions: 640000002 cycles: 1503772155 heartbeat IPC: 0.358153 cumulative IPC: 0.369187 (Simulation time: 0 hr 24 min 49 sec) 
Heartbeat CPU 0 instructions: 650000000 cycles: 1531260131 heartbeat IPC: 0.363795 cumulative IPC: 0.369087 (Simulation time: 0 hr 25 min 12 sec) 
Heartbeat CPU 0 instructions: 660000000 cycles: 1558970783 heartbeat IPC: 0.360872 cumulative IPC: 0.368937 (Simulation time: 0 hr 25 min 35 sec) 
Heartbeat CPU 0 instructions: 670000000 cycles: 1586752518 heartbeat IPC: 0.359949 cumulative IPC: 0.368776 (Simulation time: 0 hr 25 min 58 sec) 
Heartbeat CPU 0 instructions: 680000000 cycles: 1614492921 heartbeat IPC: 0.360485 cumulative IPC: 0.368629 (Simulation time: 0 hr 26 min 21 sec) 
Heartbeat CPU 0 instructions: 690000002 cycles: 1641804189 heartbeat IPC: 0.366149 cumulative IPC: 0.368587 (Simulation time: 0 hr 26 min 44 sec) 
Heartbeat CPU 0 instructions: 700000000 cycles: 1669684725 heartbeat IPC: 0.358673 cumulative IPC: 0.368417 (Simulation time: 0 hr 27 min 7 sec) 
Heartbeat CPU 0 instructions: 710000000 cycles: 1697449180 heartbeat IPC: 0.360173 cumulative IPC: 0.368279 (Simulation time: 0 hr 27 min 30 sec) 
Heartbeat CPU 0 instructions: 720000000 cycles: 1725387115 heartbeat IPC: 0.357936 cumulative IPC: 0.368108 (Simulation time: 0 hr 27 min 54 sec) 
Heartbeat CPU 0 instructions: 730000000 cycles: 1753475093 heartbeat IPC: 0.356024 cumulative IPC: 0.367909 (Simulation time: 0 hr 28 min 17 sec) 
Heartbeat CPU 0 instructions: 740000002 cycles: 1781207242 heartbeat IPC: 0.360592 cumulative IPC: 0.367793 (Simulation time: 0 hr 28 min 40 sec) 
Heartbeat CPU 0 instructions: 750000001 cycles: 1808823883 heartbeat IPC: 0.3621 cumulative IPC: 0.367704 (Simulation time: 0 hr 29 min 4 sec) 
Heartbeat CPU 0 instructions: 760000002 cycles: 1837068058 heartbeat IPC: 0.354055 cumulative IPC: 0.367489 (Simulation time: 0 hr 29 min 29 sec) 
Heartbeat CPU 0 instructions: 770000000 cycles: 1865236589 heartbeat IPC: 0.355006 cumulative IPC: 0.367297 (Simulation time: 0 hr 29 min 52 sec) 
Heartbeat CPU 0 instructions: 780000002 cycles: 1893361771 heartbeat IPC: 0.355553 cumulative IPC: 0.367118 (Simulation time: 0 hr 30 min 16 sec) 
Heartbeat CPU 0 instructions: 790000001 cycles: 1921301406 heartbeat IPC: 0.357914 cumulative IPC: 0.366981 (Simulation time: 0 hr 30 min 40 sec) 
Heartbeat CPU 0 instructions: 800000000 cycles: 1950803755 heartbeat IPC: 0.338956 cumulative IPC: 0.366549 (Simulation time: 0 hr 31 min 4 sec) 
Heartbeat CPU 0 instructions: 810000003 cycles: 1979462997 heartbeat IPC: 0.348928 cumulative IPC: 0.366288 (Simulation time: 0 hr 31 min 29 sec) 
Heartbeat CPU 0 instructions: 820000002 cycles: 2008059087 heartbeat IPC: 0.349698 cumulative IPC: 0.366047 (Simulation time: 0 hr 31 min 54 sec) 
Heartbeat CPU 0 instructions: 830000000 cycles: 2036752086 heartbeat IPC: 0.348517 cumulative IPC: 0.365795 (Simulation time: 0 hr 32 min 19 sec) 
Heartbeat CPU 0 instructions: 840000001 cycles: 2065075187 heartbeat IPC: 0.353069 cumulative IPC: 0.365617 (Simulation time: 0 hr 32 min 45 sec) 
Heartbeat CPU 0 instructions: 850000001 cycles: 2094816918 heartbeat IPC: 0.336228 cumulative IPC: 0.365191 (Simulation time: 0 hr 33 min 10 sec) 
Heartbeat CPU 0 instructions: 860000002 cycles: 2123591353 heartbeat IPC: 0.347531 cumulative IPC: 0.364947 (Simulation time: 0 hr 33 min 35 sec) 
Heartbeat CPU 0 instructions: 870000001 cycles: 2152405060 heartbeat IPC: 0.347057 cumulative IPC: 0.364703 (Simulation time: 0 hr 34 min 1 sec) 
Heartbeat CPU 0 instructions: 880000000 cycles: 2181166466 heartbeat IPC: 0.347688 cumulative IPC: 0.364474 (Simulation time: 0 hr 34 min 26 sec) 
Heartbeat CPU 0 instructions: 890000000 cycles: 2210113672 heartbeat IPC: 0.345456 cumulative IPC: 0.36422 (Simulation time: 0 hr 34 min 51 sec) 
Heartbeat CPU 0 instructions: 900000000 cycles: 2238912960 heartbeat IPC: 0.347231 cumulative IPC: 0.363998 (Simulation time: 0 hr 35 min 16 sec) 
Heartbeat CPU 0 instructions: 910000003 cycles: 2267252235 heartbeat IPC: 0.352867 cumulative IPC: 0.363856 (Simulation time: 0 hr 35 min 42 sec) 
Heartbeat CPU 0 instructions: 920000001 cycles: 2296354533 heartbeat IPC: 0.343615 cumulative IPC: 0.363595 (Simulation time: 0 hr 36 min 7 sec) 
Heartbeat CPU 0 instructions: 930000003 cycles: 2325154945 heartbeat IPC: 0.347217 cumulative IPC: 0.363388 (Simulation time: 0 hr 36 min 32 sec) 
Heartbeat CPU 0 instructions: 940000000 cycles: 2354040408 heartbeat IPC: 0.346195 cumulative IPC: 0.363174 (Simulation time: 0 hr 36 min 57 sec) 
Heartbeat CPU 0 instructions: 950000003 cycles: 2383051759 heartbeat IPC: 0.344693 cumulative IPC: 0.362945 (Simulation time: 0 hr 37 min 22 sec) 
Heartbeat CPU 0 instructions: 960000001 cycles: 2411793251 heartbeat IPC: 0.347929 cumulative IPC: 0.362763 (Simulation time: 0 hr 37 min 47 sec) 
Heartbeat CPU 0 instructions: 970000002 cycles: 2441145318 heartbeat IPC: 0.340692 cumulative IPC: 0.362493 (Simulation time: 0 hr 38 min 12 sec) 
Heartbeat CPU 0 instructions: 980000003 cycles: 2470122885 heartbeat IPC: 0.345095 cumulative IPC: 0.362285 (Simulation time: 0 hr 38 min 37 sec) 
Heartbeat CPU 0 instructions: 990000000 cycles: 2498824871 heartbeat IPC: 0.348408 cumulative IPC: 0.362123 (Simulation time: 0 hr 39 min 2 sec) 
Heartbeat CPU 0 instructions: 1000000002 cycles: 2527418713 heartbeat IPC: 0.349726 cumulative IPC: 0.361981 (Simulation time: 0 hr 39 min 26 sec) 
Heartbeat CPU 0 instructions: 1010000002 cycles: 2556026664 heartbeat IPC: 0.349553 cumulative IPC: 0.361839 (Simulation time: 0 hr 39 min 51 sec) 
Heartbeat CPU 0 instructions: 1020000002 cycles: 2585153366 heartbeat IPC: 0.343328 cumulative IPC: 0.361627 (Simulation time: 0 hr 40 min 16 sec) 
Heartbeat CPU 0 instructions: 1030000003 cycles: 2613987651 heartbeat IPC: 0.346809 cumulative IPC: 0.361461 (Simulation time: 0 hr 40 min 40 sec) 
Heartbeat CPU 0 instructions: 1040000001 cycles: 2642697276 heartbeat IPC: 0.348315 cumulative IPC: 0.361316 (Simulation time: 0 hr 41 min 4 sec) 
Heartbeat CPU 0 instructions: 1050000001 cycles: 2671257689 heartbeat IPC: 0.350135 cumulative IPC: 0.361195 (Simulation time: 0 hr 41 min 28 sec) 
Heartbeat CPU 0 instructions: 1060000000 cycles: 2699904739 heartbeat IPC: 0.349076 cumulative IPC: 0.361064 (Simulation time: 0 hr 41 min 52 sec) 
Heartbeat CPU 0 instructions: 1070000003 cycles: 2728495600 heartbeat IPC: 0.349762 cumulative IPC: 0.360944 (Simulation time: 0 hr 42 min 16 sec) 
Heartbeat CPU 0 instructions: 1080000000 cycles: 2757006705 heartbeat IPC: 0.35074 cumulative IPC: 0.360837 (Simulation time: 0 hr 42 min 40 sec) 
Heartbeat CPU 0 instructions: 1090000002 cycles: 2785811663 heartbeat IPC: 0.347163 cumulative IPC: 0.360693 (Simulation time: 0 hr 43 min 4 sec) 
Heartbeat CPU 0 instructions: 1100000000 cycles: 2813971892 heartbeat IPC: 0.355111 cumulative IPC: 0.360637 (Simulation time: 0 hr 43 min 28 sec) 
Finished CPU 0 instructions: 1000000000 cycles: 2772874484 cumulative IPC: 0.360637 (Simulation time: 0 hr 43 min 28 sec) 

ChampSim completed all CPUs

Region of Interest Statistics

CPU 0 cumulative IPC: 0.360637 instructions: 1000000000 cycles: 2772874484
L1D TOTAL     ACCESS:  372179302  HIT:  329062972  MISS:   43116330
L1D LOAD      ACCESS:  263308083  HIT:  224087773  MISS:   39220310
L1D RFO       ACCESS:  108871219  HIT:  104975199  MISS:    3896020
L1D PREFETCH  ACCESS:          0  HIT:          0  MISS:          0
L1D WRITEBACK ACCESS:          0  HIT:          0  MISS:          0
L1D PREFETCH  REQUESTED:          0  ISSUED:          0  USEFUL:          0  USELESS:          0
L1D AVERAGE MISS LATENCY: 73.5063 cycles
L1I TOTAL     ACCESS:  194959758  HIT:  194959756  MISS:          2
L1I LOAD      ACCESS:  194959758  HIT:  194959756  MISS:          2
L1I RFO       ACCESS:          0  HIT:          0  MISS:          0
L1I PREFETCH  ACCESS:          0  HIT:          0  MISS:          0
L1I WRITEBACK ACCESS:          0  HIT:          0  MISS:          0
L1I PREFETCH  REQUESTED:          0  ISSUED:          0  USEFUL:          0  USELESS:          0
L1I AVERAGE MISS LATENCY: 235 cycles
L2C TOTAL     ACCESS:   49085980  HIT:   18191929  MISS:   30894051
L2C LOAD      ACCESS:   39220194  HIT:   11198414  MISS:   28021780
L2C RFO       ACCESS:    3895952  HIT:    1030064  MISS:    2865888
L2C PREFETCH  ACCESS:          0  HIT:          0  MISS:          0
L2C WRITEBACK ACCESS:    5969834  HIT:    5963451  MISS:       6383
L2C PREFETCH  REQUESTED:          0  ISSUED:          0  USEFUL:          0  USELESS:          0
L2C AVERAGE MISS LATENCY: 85.4873 cycles
LLC TOTAL     ACCESS:   35135762  HIT:   23657277  MISS:   11478485
LLC LOAD      ACCESS:   28021688  HIT:   16564955  MISS:   11456733
LLC RFO       ACCESS:    2865767  HIT:    2859530  MISS:       6237
LLC PREFETCH  ACCESS:          0  HIT:          0  MISS:          0
LLC WRITEBACK ACCESS:    4248307  HIT:    4232792  MISS:      15515
LLC PREFETCH  REQUESTED:          0  ISSUED:          0  USEFUL:          0  USELESS:          0
LLC AVERAGE MISS LATENCY: 120.791 cycles
Major fault: 0 Minor fault: 151086

DRAM Statistics
 CHANNEL 0
 RQ ROW_BUFFER_HIT:    7470483  ROW_BUFFER_MISS:    3992481
 DBUS_CONGESTED:    1969190
 WQ ROW_BUFFER_HIT:      26963  ROW_BUFFER_MISS:      67118  FULL:          0

 AVG_CONGESTED_CYCLE: 5

CPU 0 Branch Prediction Accuracy: 88.8495% MPKI: 28.0155 Average ROB Occupancy at Mispredict: 14.8542

Branch types
NOT_BRANCH: 748751390 74.8751%
BRANCH_DIRECT_JUMP: 26840018 2.684%
BRANCH_INDIRECT: 0 0%
BRANCH_CONDITIONAL: 170587008 17.0587%
BRANCH_DIRECT_CALL: 25420991 2.5421%
BRANCH_INDIRECT_CALL: 1489642 0.148964%
BRANCH_RETURN: 26910634 2.69106%
BRANCH_OTHER: 0 0%

