
*** ChampSim Multicore Out-of-Order Simulator ***

Warmup Instructions: 100000000
Simulation Instructions: 1000000000
Number of CPUs: 1
LLC sets: 2048
LLC ways: 16
Off-chip DRAM Size: 4096 MB Channels: 1 Width: 64-bit Data Rate: 3200 MT/s

CPU 0 runs /scratch/user/kevin.weston/dpc3-traces/605.champsimtrace.xz
CPU 0 Bimodal branch predictor
Initialize SRRIP state
Heartbeat CPU 0 instructions: 10000000 cycles: 4110973 heartbeat IPC: 2.43251 cumulative IPC: 2.43251 (Simulation time: 0 hr 0 min 24 sec) 
Heartbeat CPU 0 instructions: 20000000 cycles: 8229140 heartbeat IPC: 2.42826 cumulative IPC: 2.43039 (Simulation time: 0 hr 0 min 49 sec) 
Heartbeat CPU 0 instructions: 30000002 cycles: 12333010 heartbeat IPC: 2.43672 cumulative IPC: 2.4325 (Simulation time: 0 hr 1 min 13 sec) 
Heartbeat CPU 0 instructions: 40000000 cycles: 16440398 heartbeat IPC: 2.43464 cumulative IPC: 2.43303 (Simulation time: 0 hr 1 min 37 sec) 
Heartbeat CPU 0 instructions: 50000000 cycles: 20543402 heartbeat IPC: 2.43724 cumulative IPC: 2.43387 (Simulation time: 0 hr 2 min 1 sec) 
Heartbeat CPU 0 instructions: 60000003 cycles: 24647453 heartbeat IPC: 2.43662 cumulative IPC: 2.43433 (Simulation time: 0 hr 2 min 25 sec) 
Heartbeat CPU 0 instructions: 70000003 cycles: 28756575 heartbeat IPC: 2.43361 cumulative IPC: 2.43423 (Simulation time: 0 hr 2 min 49 sec) 
Heartbeat CPU 0 instructions: 80000000 cycles: 32864620 heartbeat IPC: 2.43425 cumulative IPC: 2.43423 (Simulation time: 0 hr 3 min 13 sec) 
Heartbeat CPU 0 instructions: 90000000 cycles: 36979681 heartbeat IPC: 2.4301 cumulative IPC: 2.43377 (Simulation time: 0 hr 3 min 38 sec) 
Heartbeat CPU 0 instructions: 100000000 cycles: 41067465 heartbeat IPC: 2.44631 cumulative IPC: 2.43502 (Simulation time: 0 hr 4 min 2 sec) 

Warmup complete CPU 0 instructions: 100000002 cycles: 41067466 (Simulation time: 0 hr 4 min 2 sec) 

Heartbeat CPU 0 instructions: 110000000 cycles: 67887080 heartbeat IPC: 0.372861 cumulative IPC: 0.372861 (Simulation time: 0 hr 4 min 22 sec) 
Heartbeat CPU 0 instructions: 120000000 cycles: 94483924 heartbeat IPC: 0.375984 cumulative IPC: 0.374416 (Simulation time: 0 hr 4 min 42 sec) 
Heartbeat CPU 0 instructions: 130000000 cycles: 120929934 heartbeat IPC: 0.378129 cumulative IPC: 0.375646 (Simulation time: 0 hr 5 min 1 sec) 
Heartbeat CPU 0 instructions: 140000002 cycles: 148075790 heartbeat IPC: 0.36838 cumulative IPC: 0.373803 (Simulation time: 0 hr 5 min 21 sec) 
Heartbeat CPU 0 instructions: 150000000 cycles: 175058604 heartbeat IPC: 0.370606 cumulative IPC: 0.373159 (Simulation time: 0 hr 5 min 41 sec) 
Heartbeat CPU 0 instructions: 160000000 cycles: 201716376 heartbeat IPC: 0.375125 cumulative IPC: 0.373485 (Simulation time: 0 hr 6 min 1 sec) 
Heartbeat CPU 0 instructions: 170000000 cycles: 229245588 heartbeat IPC: 0.36325 cumulative IPC: 0.371988 (Simulation time: 0 hr 6 min 20 sec) 
Heartbeat CPU 0 instructions: 180000001 cycles: 255878916 heartbeat IPC: 0.375469 cumulative IPC: 0.37242 (Simulation time: 0 hr 6 min 40 sec) 
Heartbeat CPU 0 instructions: 190000002 cycles: 282813667 heartbeat IPC: 0.371268 cumulative IPC: 0.372291 (Simulation time: 0 hr 7 min 0 sec) 
Heartbeat CPU 0 instructions: 200000000 cycles: 309911659 heartbeat IPC: 0.369031 cumulative IPC: 0.371963 (Simulation time: 0 hr 7 min 20 sec) 
Heartbeat CPU 0 instructions: 210000003 cycles: 337016058 heartbeat IPC: 0.368944 cumulative IPC: 0.371686 (Simulation time: 0 hr 7 min 40 sec) 
Heartbeat CPU 0 instructions: 220000000 cycles: 363385415 heartbeat IPC: 0.379228 cumulative IPC: 0.372303 (Simulation time: 0 hr 7 min 59 sec) 
Heartbeat CPU 0 instructions: 230000000 cycles: 391230937 heartbeat IPC: 0.359124 cumulative IPC: 0.371255 (Simulation time: 0 hr 8 min 19 sec) 
Heartbeat CPU 0 instructions: 240000000 cycles: 417430940 heartbeat IPC: 0.381679 cumulative IPC: 0.371981 (Simulation time: 0 hr 8 min 39 sec) 
Heartbeat CPU 0 instructions: 250000001 cycles: 444153785 heartbeat IPC: 0.374212 cumulative IPC: 0.372129 (Simulation time: 0 hr 8 min 59 sec) 
Heartbeat CPU 0 instructions: 260000002 cycles: 470963492 heartbeat IPC: 0.372999 cumulative IPC: 0.372183 (Simulation time: 0 hr 9 min 19 sec) 
Heartbeat CPU 0 instructions: 270000000 cycles: 497752146 heartbeat IPC: 0.373292 cumulative IPC: 0.372248 (Simulation time: 0 hr 9 min 39 sec) 
Heartbeat CPU 0 instructions: 280000001 cycles: 524562137 heartbeat IPC: 0.372995 cumulative IPC: 0.37229 (Simulation time: 0 hr 9 min 59 sec) 
Heartbeat CPU 0 instructions: 290000003 cycles: 550686617 heartbeat IPC: 0.382783 cumulative IPC: 0.372827 (Simulation time: 0 hr 10 min 18 sec) 
Heartbeat CPU 0 instructions: 300000000 cycles: 577184909 heartbeat IPC: 0.377383 cumulative IPC: 0.373053 (Simulation time: 0 hr 10 min 38 sec) 
Heartbeat CPU 0 instructions: 310000000 cycles: 601938895 heartbeat IPC: 0.403975 cumulative IPC: 0.374417 (Simulation time: 0 hr 10 min 58 sec) 
Heartbeat CPU 0 instructions: 320000001 cycles: 627755673 heartbeat IPC: 0.387345 cumulative IPC: 0.374986 (Simulation time: 0 hr 11 min 18 sec) 
Heartbeat CPU 0 instructions: 330000000 cycles: 653263261 heartbeat IPC: 0.39204 cumulative IPC: 0.375697 (Simulation time: 0 hr 11 min 38 sec) 
Heartbeat CPU 0 instructions: 340000003 cycles: 678631285 heartbeat IPC: 0.394197 cumulative IPC: 0.376433 (Simulation time: 0 hr 11 min 57 sec) 
Heartbeat CPU 0 instructions: 350000003 cycles: 704008897 heartbeat IPC: 0.394048 cumulative IPC: 0.377107 (Simulation time: 0 hr 12 min 17 sec) 
Heartbeat CPU 0 instructions: 360000001 cycles: 729047942 heartbeat IPC: 0.399376 cumulative IPC: 0.377918 (Simulation time: 0 hr 12 min 37 sec) 
Heartbeat CPU 0 instructions: 370000002 cycles: 754115962 heartbeat IPC: 0.398915 cumulative IPC: 0.378656 (Simulation time: 0 hr 12 min 57 sec) 
Heartbeat CPU 0 instructions: 380000001 cycles: 779598403 heartbeat IPC: 0.392427 cumulative IPC: 0.379131 (Simulation time: 0 hr 13 min 16 sec) 
Heartbeat CPU 0 instructions: 390000000 cycles: 805002396 heartbeat IPC: 0.393639 cumulative IPC: 0.379613 (Simulation time: 0 hr 13 min 36 sec) 
Heartbeat CPU 0 instructions: 400000001 cycles: 830353924 heartbeat IPC: 0.394454 cumulative IPC: 0.38009 (Simulation time: 0 hr 13 min 56 sec) 
Heartbeat CPU 0 instructions: 410000000 cycles: 855851191 heartbeat IPC: 0.392199 cumulative IPC: 0.380469 (Simulation time: 0 hr 14 min 16 sec) 
Heartbeat CPU 0 instructions: 420000003 cycles: 881300100 heartbeat IPC: 0.392944 cumulative IPC: 0.380847 (Simulation time: 0 hr 14 min 36 sec) 
Heartbeat CPU 0 instructions: 430000000 cycles: 906862998 heartbeat IPC: 0.391192 cumulative IPC: 0.381152 (Simulation time: 0 hr 14 min 55 sec) 
Heartbeat CPU 0 instructions: 440000000 cycles: 932211647 heartbeat IPC: 0.394498 cumulative IPC: 0.381532 (Simulation time: 0 hr 15 min 15 sec) 
Heartbeat CPU 0 instructions: 450000002 cycles: 958122088 heartbeat IPC: 0.385945 cumulative IPC: 0.381657 (Simulation time: 0 hr 15 min 35 sec) 
Heartbeat CPU 0 instructions: 460000001 cycles: 984198963 heartbeat IPC: 0.383482 cumulative IPC: 0.381707 (Simulation time: 0 hr 15 min 55 sec) 
Heartbeat CPU 0 instructions: 470000003 cycles: 1011071843 heartbeat IPC: 0.372122 cumulative IPC: 0.381442 (Simulation time: 0 hr 16 min 15 sec) 
Heartbeat CPU 0 instructions: 480000000 cycles: 1037404499 heartbeat IPC: 0.379756 cumulative IPC: 0.381397 (Simulation time: 0 hr 16 min 35 sec) 
Heartbeat CPU 0 instructions: 490000003 cycles: 1063782715 heartbeat IPC: 0.379101 cumulative IPC: 0.381338 (Simulation time: 0 hr 16 min 55 sec) 
Heartbeat CPU 0 instructions: 500000000 cycles: 1090882180 heartbeat IPC: 0.369011 cumulative IPC: 0.38102 (Simulation time: 0 hr 17 min 15 sec) 
Heartbeat CPU 0 instructions: 510000001 cycles: 1117102159 heartbeat IPC: 0.381389 cumulative IPC: 0.381029 (Simulation time: 0 hr 17 min 34 sec) 
Heartbeat CPU 0 instructions: 520000000 cycles: 1143382537 heartbeat IPC: 0.380512 cumulative IPC: 0.381016 (Simulation time: 0 hr 17 min 54 sec) 
Heartbeat CPU 0 instructions: 530000003 cycles: 1170372369 heartbeat IPC: 0.37051 cumulative IPC: 0.380765 (Simulation time: 0 hr 18 min 14 sec) 
Heartbeat CPU 0 instructions: 540000001 cycles: 1196725664 heartbeat IPC: 0.379459 cumulative IPC: 0.380735 (Simulation time: 0 hr 18 min 34 sec) 
Heartbeat CPU 0 instructions: 550000000 cycles: 1223807876 heartbeat IPC: 0.369246 cumulative IPC: 0.380472 (Simulation time: 0 hr 18 min 54 sec) 
Heartbeat CPU 0 instructions: 560000000 cycles: 1250991874 heartbeat IPC: 0.367863 cumulative IPC: 0.380189 (Simulation time: 0 hr 19 min 14 sec) 
Heartbeat CPU 0 instructions: 570000000 cycles: 1287146722 heartbeat IPC: 0.276588 cumulative IPC: 0.377183 (Simulation time: 0 hr 19 min 36 sec) 
Heartbeat CPU 0 instructions: 580000001 cycles: 1314942185 heartbeat IPC: 0.359771 cumulative IPC: 0.376803 (Simulation time: 0 hr 19 min 56 sec) 
Heartbeat CPU 0 instructions: 590000000 cycles: 1343188764 heartbeat IPC: 0.354025 cumulative IPC: 0.376309 (Simulation time: 0 hr 20 min 17 sec) 
Heartbeat CPU 0 instructions: 600000000 cycles: 1371196817 heartbeat IPC: 0.35704 cumulative IPC: 0.375903 (Simulation time: 0 hr 20 min 37 sec) 
Heartbeat CPU 0 instructions: 610000001 cycles: 1399235963 heartbeat IPC: 0.356644 cumulative IPC: 0.375506 (Simulation time: 0 hr 20 min 57 sec) 
Heartbeat CPU 0 instructions: 620000001 cycles: 1426433667 heartbeat IPC: 0.367678 cumulative IPC: 0.375352 (Simulation time: 0 hr 21 min 18 sec) 
Heartbeat CPU 0 instructions: 630000001 cycles: 1454423038 heartbeat IPC: 0.357278 cumulative IPC: 0.374994 (Simulation time: 0 hr 21 min 38 sec) 
Heartbeat CPU 0 instructions: 640000002 cycles: 1482377047 heartbeat IPC: 0.35773 cumulative IPC: 0.374659 (Simulation time: 0 hr 21 min 58 sec) 
Heartbeat CPU 0 instructions: 650000000 cycles: 1509782389 heartbeat IPC: 0.364892 cumulative IPC: 0.374477 (Simulation time: 0 hr 22 min 19 sec) 
Heartbeat CPU 0 instructions: 660000000 cycles: 1537582250 heartbeat IPC: 0.359714 cumulative IPC: 0.374203 (Simulation time: 0 hr 22 min 39 sec) 
Heartbeat CPU 0 instructions: 670000000 cycles: 1565431235 heartbeat IPC: 0.35908 cumulative IPC: 0.373926 (Simulation time: 0 hr 22 min 59 sec) 
Heartbeat CPU 0 instructions: 680000000 cycles: 1593337333 heartbeat IPC: 0.358345 cumulative IPC: 0.373646 (Simulation time: 0 hr 23 min 20 sec) 
Heartbeat CPU 0 instructions: 690000002 cycles: 1620631286 heartbeat IPC: 0.366382 cumulative IPC: 0.373521 (Simulation time: 0 hr 23 min 40 sec) 
Heartbeat CPU 0 instructions: 700000000 cycles: 1648646416 heartbeat IPC: 0.35695 cumulative IPC: 0.373232 (Simulation time: 0 hr 24 min 1 sec) 
Heartbeat CPU 0 instructions: 710000000 cycles: 1676474640 heartbeat IPC: 0.359347 cumulative IPC: 0.372996 (Simulation time: 0 hr 24 min 21 sec) 
Heartbeat CPU 0 instructions: 720000000 cycles: 1704555833 heartbeat IPC: 0.35611 cumulative IPC: 0.372711 (Simulation time: 0 hr 24 min 42 sec) 
Heartbeat CPU 0 instructions: 730000000 cycles: 1732836402 heartbeat IPC: 0.3536 cumulative IPC: 0.372391 (Simulation time: 0 hr 25 min 2 sec) 
Heartbeat CPU 0 instructions: 740000002 cycles: 1760684730 heartbeat IPC: 0.359088 cumulative IPC: 0.372176 (Simulation time: 0 hr 25 min 23 sec) 
Heartbeat CPU 0 instructions: 750000001 cycles: 1788436214 heartbeat IPC: 0.360341 cumulative IPC: 0.371988 (Simulation time: 0 hr 25 min 43 sec) 
Heartbeat CPU 0 instructions: 760000002 cycles: 1816794310 heartbeat IPC: 0.352633 cumulative IPC: 0.371679 (Simulation time: 0 hr 26 min 4 sec) 
Heartbeat CPU 0 instructions: 770000000 cycles: 1845177394 heartbeat IPC: 0.352322 cumulative IPC: 0.371374 (Simulation time: 0 hr 26 min 24 sec) 
Heartbeat CPU 0 instructions: 780000002 cycles: 1873496499 heartbeat IPC: 0.353119 cumulative IPC: 0.371092 (Simulation time: 0 hr 26 min 45 sec) 
Heartbeat CPU 0 instructions: 790000001 cycles: 1901670480 heartbeat IPC: 0.354937 cumulative IPC: 0.370848 (Simulation time: 0 hr 27 min 5 sec) 
Heartbeat CPU 0 instructions: 800000000 cycles: 1931865261 heartbeat IPC: 0.331183 cumulative IPC: 0.370214 (Simulation time: 0 hr 27 min 29 sec) 
Heartbeat CPU 0 instructions: 810000003 cycles: 1961401168 heartbeat IPC: 0.338571 cumulative IPC: 0.369727 (Simulation time: 0 hr 27 min 50 sec) 
Heartbeat CPU 0 instructions: 820000002 cycles: 1990901403 heartbeat IPC: 0.33898 cumulative IPC: 0.369262 (Simulation time: 0 hr 28 min 12 sec) 
Heartbeat CPU 0 instructions: 830000000 cycles: 2020849409 heartbeat IPC: 0.333912 cumulative IPC: 0.368727 (Simulation time: 0 hr 28 min 34 sec) 
Heartbeat CPU 0 instructions: 840000001 cycles: 2050377374 heartbeat IPC: 0.338662 cumulative IPC: 0.368286 (Simulation time: 0 hr 28 min 56 sec) 
Heartbeat CPU 0 instructions: 850000001 cycles: 2081619829 heartbeat IPC: 0.320077 cumulative IPC: 0.367548 (Simulation time: 0 hr 29 min 19 sec) 
Heartbeat CPU 0 instructions: 860000002 cycles: 2111927244 heartbeat IPC: 0.329952 cumulative IPC: 0.366997 (Simulation time: 0 hr 29 min 42 sec) 
Heartbeat CPU 0 instructions: 870000001 cycles: 2142233614 heartbeat IPC: 0.329964 cumulative IPC: 0.366463 (Simulation time: 0 hr 30 min 4 sec) 
Heartbeat CPU 0 instructions: 880000000 cycles: 2172542243 heartbeat IPC: 0.329939 cumulative IPC: 0.365944 (Simulation time: 0 hr 30 min 27 sec) 
Heartbeat CPU 0 instructions: 890000000 cycles: 2203168341 heartbeat IPC: 0.326519 cumulative IPC: 0.365385 (Simulation time: 0 hr 30 min 50 sec) 
Heartbeat CPU 0 instructions: 900000000 cycles: 2233629802 heartbeat IPC: 0.328284 cumulative IPC: 0.36487 (Simulation time: 0 hr 31 min 12 sec) 
Heartbeat CPU 0 instructions: 910000003 cycles: 2263632924 heartbeat IPC: 0.333299 cumulative IPC: 0.364444 (Simulation time: 0 hr 31 min 35 sec) 
Heartbeat CPU 0 instructions: 920000001 cycles: 2294493571 heartbeat IPC: 0.324037 cumulative IPC: 0.36389 (Simulation time: 0 hr 31 min 58 sec) 
Heartbeat CPU 0 instructions: 930000003 cycles: 2324959285 heartbeat IPC: 0.328238 cumulative IPC: 0.363415 (Simulation time: 0 hr 32 min 21 sec) 
Heartbeat CPU 0 instructions: 940000000 cycles: 2355609701 heartbeat IPC: 0.32626 cumulative IPC: 0.362923 (Simulation time: 0 hr 32 min 44 sec) 
Heartbeat CPU 0 instructions: 950000003 cycles: 2386422593 heartbeat IPC: 0.32454 cumulative IPC: 0.362418 (Simulation time: 0 hr 33 min 7 sec) 
Heartbeat CPU 0 instructions: 960000001 cycles: 2416999742 heartbeat IPC: 0.327042 cumulative IPC: 0.361963 (Simulation time: 0 hr 33 min 30 sec) 
Heartbeat CPU 0 instructions: 970000002 cycles: 2448193657 heartbeat IPC: 0.320575 cumulative IPC: 0.361427 (Simulation time: 0 hr 33 min 53 sec) 
Heartbeat CPU 0 instructions: 980000003 cycles: 2478861706 heartbeat IPC: 0.326072 cumulative IPC: 0.360982 (Simulation time: 0 hr 34 min 15 sec) 
Heartbeat CPU 0 instructions: 990000000 cycles: 2509176730 heartbeat IPC: 0.329869 cumulative IPC: 0.3606 (Simulation time: 0 hr 34 min 38 sec) 
Heartbeat CPU 0 instructions: 1000000002 cycles: 2539393306 heartbeat IPC: 0.330944 cumulative IPC: 0.360241 (Simulation time: 0 hr 35 min 0 sec) 
Heartbeat CPU 0 instructions: 1010000002 cycles: 2569635416 heartbeat IPC: 0.330665 cumulative IPC: 0.359888 (Simulation time: 0 hr 35 min 23 sec) 
Heartbeat CPU 0 instructions: 1020000002 cycles: 2600272823 heartbeat IPC: 0.326398 cumulative IPC: 0.359487 (Simulation time: 0 hr 35 min 46 sec) 
Heartbeat CPU 0 instructions: 1030000003 cycles: 2630304811 heartbeat IPC: 0.332978 cumulative IPC: 0.359179 (Simulation time: 0 hr 36 min 8 sec) 
Heartbeat CPU 0 instructions: 1040000001 cycles: 2660258225 heartbeat IPC: 0.333852 cumulative IPC: 0.358889 (Simulation time: 0 hr 36 min 30 sec) 
Heartbeat CPU 0 instructions: 1050000001 cycles: 2690039776 heartbeat IPC: 0.335778 cumulative IPC: 0.35863 (Simulation time: 0 hr 36 min 52 sec) 
Heartbeat CPU 0 instructions: 1060000000 cycles: 2719845740 heartbeat IPC: 0.335503 cumulative IPC: 0.358372 (Simulation time: 0 hr 37 min 14 sec) 
Heartbeat CPU 0 instructions: 1070000003 cycles: 2749515359 heartbeat IPC: 0.337045 cumulative IPC: 0.358139 (Simulation time: 0 hr 37 min 36 sec) 
Heartbeat CPU 0 instructions: 1080000000 cycles: 2779043548 heartbeat IPC: 0.338659 cumulative IPC: 0.357929 (Simulation time: 0 hr 37 min 57 sec) 
Heartbeat CPU 0 instructions: 1090000002 cycles: 2809020527 heartbeat IPC: 0.333589 cumulative IPC: 0.357665 (Simulation time: 0 hr 38 min 19 sec) 
Heartbeat CPU 0 instructions: 1100000000 cycles: 2838248860 heartbeat IPC: 0.342134 cumulative IPC: 0.357503 (Simulation time: 0 hr 38 min 41 sec) 
Finished CPU 0 instructions: 1000000000 cycles: 2797181395 cumulative IPC: 0.357503 (Simulation time: 0 hr 38 min 41 sec) 

ChampSim completed all CPUs

Region of Interest Statistics

CPU 0 cumulative IPC: 0.357503 instructions: 1000000000 cycles: 2797181395
L1D TOTAL     ACCESS:  372189565  HIT:  329073125  MISS:   43116440
L1D LOAD      ACCESS:  263317835  HIT:  224097405  MISS:   39220430
L1D RFO       ACCESS:  108871730  HIT:  104975720  MISS:    3896010
L1D PREFETCH  ACCESS:          0  HIT:          0  MISS:          0
L1D WRITEBACK ACCESS:          0  HIT:          0  MISS:          0
L1D PREFETCH  REQUESTED:          0  ISSUED:          0  USEFUL:          0  USELESS:          0
L1D AVERAGE MISS LATENCY: 78.8637 cycles
L1I TOTAL     ACCESS:  194988864  HIT:  194988862  MISS:          2
L1I LOAD      ACCESS:  194988864  HIT:  194988862  MISS:          2
L1I RFO       ACCESS:          0  HIT:          0  MISS:          0
L1I PREFETCH  ACCESS:          0  HIT:          0  MISS:          0
L1I WRITEBACK ACCESS:          0  HIT:          0  MISS:          0
L1I PREFETCH  REQUESTED:          0  ISSUED:          0  USEFUL:          0  USELESS:          0
L1I AVERAGE MISS LATENCY: 235 cycles
L2C TOTAL     ACCESS:   49086099  HIT:   18184792  MISS:   30901307
L2C LOAD      ACCESS:   39220316  HIT:   11205473  MISS:   28014843
L2C RFO       ACCESS:    3895945  HIT:    1015776  MISS:    2880169
L2C PREFETCH  ACCESS:          0  HIT:          0  MISS:          0
L2C WRITEBACK ACCESS:    5969838  HIT:    5963543  MISS:       6295
L2C PREFETCH  REQUESTED:          0  ISSUED:          0  USEFUL:          0  USELESS:          0
L2C AVERAGE MISS LATENCY: 92.9621 cycles
LLC TOTAL     ACCESS:   35152133  HIT:   23321071  MISS:   11831062
LLC LOAD      ACCESS:   28014766  HIT:   16193436  MISS:   11821330
LLC RFO       ACCESS:    2880084  HIT:    2871194  MISS:       8890
LLC PREFETCH  ACCESS:          0  HIT:          0  MISS:          0
LLC WRITEBACK ACCESS:    4257283  HIT:    4256441  MISS:        842
LLC PREFETCH  REQUESTED:          0  ISSUED:          0  USEFUL:          0  USELESS:          0
LLC AVERAGE MISS LATENCY: 136.984 cycles
Major fault: 0 Minor fault: 151086

DRAM Statistics
 CHANNEL 0
 RQ ROW_BUFFER_HIT:    5993570  ROW_BUFFER_MISS:    5836640
 DBUS_CONGESTED:    1783166
 WQ ROW_BUFFER_HIT:      36011  ROW_BUFFER_MISS:      71837  FULL:          0

 AVG_CONGESTED_CYCLE: 5

CPU 0 Branch Prediction Accuracy: 88.8495% MPKI: 28.0155 Average ROB Occupancy at Mispredict: 14.8589

Branch types
NOT_BRANCH: 748751390 74.8751%
BRANCH_DIRECT_JUMP: 26840018 2.684%
BRANCH_INDIRECT: 0 0%
BRANCH_CONDITIONAL: 170587008 17.0587%
BRANCH_DIRECT_CALL: 25420991 2.5421%
BRANCH_INDIRECT_CALL: 1489642 0.148964%
BRANCH_RETURN: 26910634 2.69106%
BRANCH_OTHER: 0 0%

