
*** ChampSim Multicore Out-of-Order Simulator ***

Warmup Instructions: 100000000
Simulation Instructions: 1000000000
Number of CPUs: 1
LLC sets: 2048
LLC ways: 16
Off-chip DRAM Size: 4096 MB Channels: 1 Width: 64-bit Data Rate: 3200 MT/s

CPU 0 runs /scratch/user/kevin.weston/dpc3-traces/605.champsimtrace.xz
CPU 0 Bimodal branch predictor
Heartbeat CPU 0 instructions: 10000000 cycles: 4111067 heartbeat IPC: 2.43246 cumulative IPC: 2.43246 (Simulation time: 0 hr 0 min 26 sec) 
Heartbeat CPU 0 instructions: 20000000 cycles: 8229428 heartbeat IPC: 2.42815 cumulative IPC: 2.4303 (Simulation time: 0 hr 0 min 52 sec) 
Heartbeat CPU 0 instructions: 30000002 cycles: 12333722 heartbeat IPC: 2.43647 cumulative IPC: 2.43236 (Simulation time: 0 hr 1 min 18 sec) 
Heartbeat CPU 0 instructions: 40000000 cycles: 16441298 heartbeat IPC: 2.43453 cumulative IPC: 2.4329 (Simulation time: 0 hr 1 min 43 sec) 
Heartbeat CPU 0 instructions: 50000000 cycles: 20544494 heartbeat IPC: 2.43712 cumulative IPC: 2.43374 (Simulation time: 0 hr 2 min 9 sec) 
Heartbeat CPU 0 instructions: 60000003 cycles: 24648792 heartbeat IPC: 2.43647 cumulative IPC: 2.4342 (Simulation time: 0 hr 2 min 35 sec) 
Heartbeat CPU 0 instructions: 70000003 cycles: 28758112 heartbeat IPC: 2.43349 cumulative IPC: 2.4341 (Simulation time: 0 hr 3 min 1 sec) 
Heartbeat CPU 0 instructions: 80000000 cycles: 32866219 heartbeat IPC: 2.43421 cumulative IPC: 2.43411 (Simulation time: 0 hr 3 min 27 sec) 
Heartbeat CPU 0 instructions: 90000000 cycles: 36981520 heartbeat IPC: 2.42996 cumulative IPC: 2.43365 (Simulation time: 0 hr 3 min 53 sec) 
Heartbeat CPU 0 instructions: 100000000 cycles: 41069463 heartbeat IPC: 2.44622 cumulative IPC: 2.4349 (Simulation time: 0 hr 4 min 19 sec) 

Warmup complete CPU 0 instructions: 100000002 cycles: 41069464 (Simulation time: 0 hr 4 min 19 sec) 

Heartbeat CPU 0 instructions: 110000000 cycles: 68157310 heartbeat IPC: 0.369169 cumulative IPC: 0.369169 (Simulation time: 0 hr 4 min 40 sec) 
Heartbeat CPU 0 instructions: 120000000 cycles: 95062509 heartbeat IPC: 0.371675 cumulative IPC: 0.370418 (Simulation time: 0 hr 5 min 2 sec) 
Heartbeat CPU 0 instructions: 130000000 cycles: 121771867 heartbeat IPC: 0.374401 cumulative IPC: 0.371736 (Simulation time: 0 hr 5 min 23 sec) 
Heartbeat CPU 0 instructions: 140000002 cycles: 149215942 heartbeat IPC: 0.364377 cumulative IPC: 0.369869 (Simulation time: 0 hr 5 min 45 sec) 
Heartbeat CPU 0 instructions: 150000000 cycles: 176514261 heartbeat IPC: 0.366323 cumulative IPC: 0.369154 (Simulation time: 0 hr 6 min 6 sec) 
Heartbeat CPU 0 instructions: 160000000 cycles: 203372798 heartbeat IPC: 0.372321 cumulative IPC: 0.369678 (Simulation time: 0 hr 6 min 27 sec) 
Heartbeat CPU 0 instructions: 170000000 cycles: 231147862 heartbeat IPC: 0.360035 cumulative IPC: 0.368269 (Simulation time: 0 hr 6 min 49 sec) 
Heartbeat CPU 0 instructions: 180000001 cycles: 258003307 heartbeat IPC: 0.372364 cumulative IPC: 0.368776 (Simulation time: 0 hr 7 min 12 sec) 
Heartbeat CPU 0 instructions: 190000002 cycles: 285209820 heartbeat IPC: 0.367559 cumulative IPC: 0.36864 (Simulation time: 0 hr 7 min 35 sec) 
Heartbeat CPU 0 instructions: 200000000 cycles: 312559332 heartbeat IPC: 0.365637 cumulative IPC: 0.368338 (Simulation time: 0 hr 7 min 57 sec) 
Heartbeat CPU 0 instructions: 210000003 cycles: 339933155 heartbeat IPC: 0.365313 cumulative IPC: 0.368061 (Simulation time: 0 hr 8 min 19 sec) 
Heartbeat CPU 0 instructions: 220000000 cycles: 366593864 heartbeat IPC: 0.375084 cumulative IPC: 0.368636 (Simulation time: 0 hr 8 min 41 sec) 
Heartbeat CPU 0 instructions: 230000000 cycles: 394700210 heartbeat IPC: 0.355792 cumulative IPC: 0.367615 (Simulation time: 0 hr 9 min 3 sec) 
Heartbeat CPU 0 instructions: 240000000 cycles: 421058423 heartbeat IPC: 0.379388 cumulative IPC: 0.368432 (Simulation time: 0 hr 9 min 24 sec) 
Heartbeat CPU 0 instructions: 250000001 cycles: 448036791 heartbeat IPC: 0.370667 cumulative IPC: 0.36858 (Simulation time: 0 hr 9 min 46 sec) 
Heartbeat CPU 0 instructions: 260000002 cycles: 475096096 heartbeat IPC: 0.369559 cumulative IPC: 0.368641 (Simulation time: 0 hr 10 min 7 sec) 
Heartbeat CPU 0 instructions: 270000000 cycles: 502105134 heartbeat IPC: 0.370246 cumulative IPC: 0.368735 (Simulation time: 0 hr 10 min 29 sec) 
Heartbeat CPU 0 instructions: 280000001 cycles: 529145088 heartbeat IPC: 0.369823 cumulative IPC: 0.368795 (Simulation time: 0 hr 10 min 50 sec) 
Heartbeat CPU 0 instructions: 290000003 cycles: 555466743 heartbeat IPC: 0.379915 cumulative IPC: 0.369364 (Simulation time: 0 hr 11 min 11 sec) 
Heartbeat CPU 0 instructions: 300000000 cycles: 582139987 heartbeat IPC: 0.374907 cumulative IPC: 0.369638 (Simulation time: 0 hr 11 min 33 sec) 
Heartbeat CPU 0 instructions: 310000000 cycles: 606988331 heartbeat IPC: 0.402441 cumulative IPC: 0.371078 (Simulation time: 0 hr 11 min 54 sec) 
Heartbeat CPU 0 instructions: 320000001 cycles: 632931010 heartbeat IPC: 0.385465 cumulative IPC: 0.371709 (Simulation time: 0 hr 12 min 16 sec) 
Heartbeat CPU 0 instructions: 330000000 cycles: 658574511 heartbeat IPC: 0.389962 cumulative IPC: 0.372467 (Simulation time: 0 hr 12 min 37 sec) 
Heartbeat CPU 0 instructions: 340000003 cycles: 684059527 heartbeat IPC: 0.392388 cumulative IPC: 0.373256 (Simulation time: 0 hr 12 min 59 sec) 
Heartbeat CPU 0 instructions: 350000003 cycles: 709563350 heartbeat IPC: 0.392098 cumulative IPC: 0.373975 (Simulation time: 0 hr 13 min 21 sec) 
Heartbeat CPU 0 instructions: 360000001 cycles: 734738784 heartbeat IPC: 0.397213 cumulative IPC: 0.374818 (Simulation time: 0 hr 13 min 42 sec) 
Heartbeat CPU 0 instructions: 370000002 cycles: 759930685 heartbeat IPC: 0.396953 cumulative IPC: 0.375594 (Simulation time: 0 hr 14 min 3 sec) 
Heartbeat CPU 0 instructions: 380000001 cycles: 785556887 heartbeat IPC: 0.390226 cumulative IPC: 0.376098 (Simulation time: 0 hr 14 min 25 sec) 
Heartbeat CPU 0 instructions: 390000000 cycles: 811103198 heartbeat IPC: 0.391446 cumulative IPC: 0.376607 (Simulation time: 0 hr 14 min 46 sec) 
Heartbeat CPU 0 instructions: 400000001 cycles: 836577119 heartbeat IPC: 0.392558 cumulative IPC: 0.377118 (Simulation time: 0 hr 15 min 8 sec) 
Heartbeat CPU 0 instructions: 410000000 cycles: 862211257 heartbeat IPC: 0.390105 cumulative IPC: 0.377523 (Simulation time: 0 hr 15 min 29 sec) 
Heartbeat CPU 0 instructions: 420000003 cycles: 887847716 heartbeat IPC: 0.39007 cumulative IPC: 0.377903 (Simulation time: 0 hr 15 min 50 sec) 
Heartbeat CPU 0 instructions: 430000000 cycles: 913552565 heartbeat IPC: 0.389032 cumulative IPC: 0.378231 (Simulation time: 0 hr 16 min 12 sec) 
Heartbeat CPU 0 instructions: 440000000 cycles: 939035940 heartbeat IPC: 0.392413 cumulative IPC: 0.378633 (Simulation time: 0 hr 16 min 33 sec) 
Heartbeat CPU 0 instructions: 450000002 cycles: 965074410 heartbeat IPC: 0.384047 cumulative IPC: 0.378786 (Simulation time: 0 hr 16 min 55 sec) 
Heartbeat CPU 0 instructions: 460000001 cycles: 991337935 heartbeat IPC: 0.380756 cumulative IPC: 0.37884 (Simulation time: 0 hr 17 min 17 sec) 
Heartbeat CPU 0 instructions: 470000003 cycles: 1018468456 heartbeat IPC: 0.368589 cumulative IPC: 0.378556 (Simulation time: 0 hr 17 min 39 sec) 
Heartbeat CPU 0 instructions: 480000000 cycles: 1045018206 heartbeat IPC: 0.376651 cumulative IPC: 0.378505 (Simulation time: 0 hr 18 min 0 sec) 
Heartbeat CPU 0 instructions: 490000003 cycles: 1071640427 heartbeat IPC: 0.375626 cumulative IPC: 0.378431 (Simulation time: 0 hr 18 min 21 sec) 
Heartbeat CPU 0 instructions: 500000000 cycles: 1099009196 heartbeat IPC: 0.36538 cumulative IPC: 0.378093 (Simulation time: 0 hr 18 min 43 sec) 
Heartbeat CPU 0 instructions: 510000001 cycles: 1125472157 heartbeat IPC: 0.377887 cumulative IPC: 0.378088 (Simulation time: 0 hr 19 min 4 sec) 
Heartbeat CPU 0 instructions: 520000000 cycles: 1151974113 heartbeat IPC: 0.377331 cumulative IPC: 0.37807 (Simulation time: 0 hr 19 min 26 sec) 
Heartbeat CPU 0 instructions: 530000003 cycles: 1179232038 heartbeat IPC: 0.366866 cumulative IPC: 0.377802 (Simulation time: 0 hr 19 min 48 sec) 
Heartbeat CPU 0 instructions: 540000001 cycles: 1205813238 heartbeat IPC: 0.376206 cumulative IPC: 0.377765 (Simulation time: 0 hr 20 min 9 sec) 
Heartbeat CPU 0 instructions: 550000000 cycles: 1233181324 heartbeat IPC: 0.365389 cumulative IPC: 0.377481 (Simulation time: 0 hr 20 min 31 sec) 
Heartbeat CPU 0 instructions: 560000000 cycles: 1260647219 heartbeat IPC: 0.364088 cumulative IPC: 0.37718 (Simulation time: 0 hr 20 min 52 sec) 
Heartbeat CPU 0 instructions: 570000000 cycles: 1297373852 heartbeat IPC: 0.272282 cumulative IPC: 0.374113 (Simulation time: 0 hr 21 min 16 sec) 
Heartbeat CPU 0 instructions: 580000001 cycles: 1325460224 heartbeat IPC: 0.356045 cumulative IPC: 0.373718 (Simulation time: 0 hr 21 min 38 sec) 
Heartbeat CPU 0 instructions: 590000000 cycles: 1354157343 heartbeat IPC: 0.348467 cumulative IPC: 0.373166 (Simulation time: 0 hr 22 min 0 sec) 
Heartbeat CPU 0 instructions: 600000000 cycles: 1382614027 heartbeat IPC: 0.351411 cumulative IPC: 0.372705 (Simulation time: 0 hr 22 min 22 sec) 
Heartbeat CPU 0 instructions: 610000001 cycles: 1411133735 heartbeat IPC: 0.350635 cumulative IPC: 0.372245 (Simulation time: 0 hr 22 min 44 sec) 
Heartbeat CPU 0 instructions: 620000001 cycles: 1438850624 heartbeat IPC: 0.360791 cumulative IPC: 0.372018 (Simulation time: 0 hr 23 min 6 sec) 
Heartbeat CPU 0 instructions: 630000001 cycles: 1467351235 heartbeat IPC: 0.35087 cumulative IPC: 0.371596 (Simulation time: 0 hr 23 min 28 sec) 
Heartbeat CPU 0 instructions: 640000002 cycles: 1495812624 heartbeat IPC: 0.351353 cumulative IPC: 0.3712 (Simulation time: 0 hr 23 min 50 sec) 
Heartbeat CPU 0 instructions: 650000000 cycles: 1523722033 heartbeat IPC: 0.358302 cumulative IPC: 0.370957 (Simulation time: 0 hr 24 min 12 sec) 
Heartbeat CPU 0 instructions: 660000000 cycles: 1552065802 heartbeat IPC: 0.352811 cumulative IPC: 0.370616 (Simulation time: 0 hr 24 min 34 sec) 
Heartbeat CPU 0 instructions: 670000000 cycles: 1580478808 heartbeat IPC: 0.351952 cumulative IPC: 0.370272 (Simulation time: 0 hr 24 min 57 sec) 
Heartbeat CPU 0 instructions: 680000000 cycles: 1608885036 heartbeat IPC: 0.352035 cumulative IPC: 0.369941 (Simulation time: 0 hr 25 min 19 sec) 
Heartbeat CPU 0 instructions: 690000002 cycles: 1636652251 heartbeat IPC: 0.360137 cumulative IPC: 0.369771 (Simulation time: 0 hr 25 min 41 sec) 
Heartbeat CPU 0 instructions: 700000000 cycles: 1665239389 heartbeat IPC: 0.349808 cumulative IPC: 0.369419 (Simulation time: 0 hr 26 min 3 sec) 
Heartbeat CPU 0 instructions: 710000000 cycles: 1693595924 heartbeat IPC: 0.352652 cumulative IPC: 0.369132 (Simulation time: 0 hr 26 min 25 sec) 
Heartbeat CPU 0 instructions: 720000000 cycles: 1722185507 heartbeat IPC: 0.349778 cumulative IPC: 0.368803 (Simulation time: 0 hr 26 min 48 sec) 
Heartbeat CPU 0 instructions: 730000000 cycles: 1751041002 heartbeat IPC: 0.346554 cumulative IPC: 0.368427 (Simulation time: 0 hr 27 min 10 sec) 
Heartbeat CPU 0 instructions: 740000002 cycles: 1779479461 heartbeat IPC: 0.351637 cumulative IPC: 0.368152 (Simulation time: 0 hr 27 min 32 sec) 
Heartbeat CPU 0 instructions: 750000001 cycles: 1807832247 heartbeat IPC: 0.352699 cumulative IPC: 0.367905 (Simulation time: 0 hr 27 min 55 sec) 
Heartbeat CPU 0 instructions: 760000002 cycles: 1836778601 heartbeat IPC: 0.345467 cumulative IPC: 0.367543 (Simulation time: 0 hr 28 min 17 sec) 
Heartbeat CPU 0 instructions: 770000000 cycles: 1865723343 heartbeat IPC: 0.345486 cumulative IPC: 0.367193 (Simulation time: 0 hr 28 min 40 sec) 
Heartbeat CPU 0 instructions: 780000002 cycles: 1894605632 heartbeat IPC: 0.346233 cumulative IPC: 0.366866 (Simulation time: 0 hr 29 min 2 sec) 
Heartbeat CPU 0 instructions: 790000001 cycles: 1923371125 heartbeat IPC: 0.347639 cumulative IPC: 0.366572 (Simulation time: 0 hr 29 min 24 sec) 
Heartbeat CPU 0 instructions: 800000000 cycles: 1954324062 heartbeat IPC: 0.323071 cumulative IPC: 0.365869 (Simulation time: 0 hr 29 min 47 sec) 
Heartbeat CPU 0 instructions: 810000003 cycles: 1984665018 heartbeat IPC: 0.329588 cumulative IPC: 0.365302 (Simulation time: 0 hr 30 min 11 sec) 
Heartbeat CPU 0 instructions: 820000002 cycles: 2014992750 heartbeat IPC: 0.329731 cumulative IPC: 0.364756 (Simulation time: 0 hr 30 min 34 sec) 
Heartbeat CPU 0 instructions: 830000000 cycles: 2045815483 heartbeat IPC: 0.324436 cumulative IPC: 0.364136 (Simulation time: 0 hr 30 min 58 sec) 
Heartbeat CPU 0 instructions: 840000001 cycles: 2076194930 heartbeat IPC: 0.32917 cumulative IPC: 0.363614 (Simulation time: 0 hr 31 min 21 sec) 
Heartbeat CPU 0 instructions: 850000001 cycles: 2108458544 heartbeat IPC: 0.309947 cumulative IPC: 0.362776 (Simulation time: 0 hr 31 min 46 sec) 
Heartbeat CPU 0 instructions: 860000002 cycles: 2139782281 heartbeat IPC: 0.319247 cumulative IPC: 0.362127 (Simulation time: 0 hr 32 min 10 sec) 
Heartbeat CPU 0 instructions: 870000001 cycles: 2171109070 heartbeat IPC: 0.319216 cumulative IPC: 0.361496 (Simulation time: 0 hr 32 min 34 sec) 
Heartbeat CPU 0 instructions: 880000000 cycles: 2202471413 heartbeat IPC: 0.318854 cumulative IPC: 0.360877 (Simulation time: 0 hr 32 min 58 sec) 
Heartbeat CPU 0 instructions: 890000000 cycles: 2234150925 heartbeat IPC: 0.315661 cumulative IPC: 0.360224 (Simulation time: 0 hr 33 min 23 sec) 
Heartbeat CPU 0 instructions: 900000000 cycles: 2265662837 heartbeat IPC: 0.31734 cumulative IPC: 0.359616 (Simulation time: 0 hr 33 min 47 sec) 
Heartbeat CPU 0 instructions: 910000003 cycles: 2296690520 heartbeat IPC: 0.322293 cumulative IPC: 0.359103 (Simulation time: 0 hr 34 min 12 sec) 
Heartbeat CPU 0 instructions: 920000001 cycles: 2328537905 heartbeat IPC: 0.313997 cumulative IPC: 0.358475 (Simulation time: 0 hr 34 min 36 sec) 
Heartbeat CPU 0 instructions: 930000003 cycles: 2360009465 heartbeat IPC: 0.317747 cumulative IPC: 0.357922 (Simulation time: 0 hr 35 min 1 sec) 
Heartbeat CPU 0 instructions: 940000000 cycles: 2391740253 heartbeat IPC: 0.315151 cumulative IPC: 0.357345 (Simulation time: 0 hr 35 min 26 sec) 
Heartbeat CPU 0 instructions: 950000003 cycles: 2423611441 heartbeat IPC: 0.313763 cumulative IPC: 0.356762 (Simulation time: 0 hr 35 min 50 sec) 
Heartbeat CPU 0 instructions: 960000001 cycles: 2455202099 heartbeat IPC: 0.316549 cumulative IPC: 0.356236 (Simulation time: 0 hr 36 min 15 sec) 
Heartbeat CPU 0 instructions: 970000002 cycles: 2487474451 heartbeat IPC: 0.309863 cumulative IPC: 0.355624 (Simulation time: 0 hr 36 min 39 sec) 
Heartbeat CPU 0 instructions: 980000003 cycles: 2519182455 heartbeat IPC: 0.315378 cumulative IPC: 0.355109 (Simulation time: 0 hr 37 min 4 sec) 
Heartbeat CPU 0 instructions: 990000000 cycles: 2550491701 heartbeat IPC: 0.319394 cumulative IPC: 0.354663 (Simulation time: 0 hr 37 min 28 sec) 
Heartbeat CPU 0 instructions: 1000000002 cycles: 2581811183 heartbeat IPC: 0.31929 cumulative IPC: 0.354227 (Simulation time: 0 hr 37 min 52 sec) 
Heartbeat CPU 0 instructions: 1010000002 cycles: 2613180325 heartbeat IPC: 0.318785 cumulative IPC: 0.353795 (Simulation time: 0 hr 38 min 17 sec) 
Heartbeat CPU 0 instructions: 1020000002 cycles: 2644870513 heartbeat IPC: 0.315555 cumulative IPC: 0.35333 (Simulation time: 0 hr 38 min 41 sec) 
Heartbeat CPU 0 instructions: 1030000003 cycles: 2675812234 heartbeat IPC: 0.323188 cumulative IPC: 0.352976 (Simulation time: 0 hr 39 min 5 sec) 
Heartbeat CPU 0 instructions: 1040000001 cycles: 2706818966 heartbeat IPC: 0.322511 cumulative IPC: 0.352621 (Simulation time: 0 hr 39 min 28 sec) 
Heartbeat CPU 0 instructions: 1050000001 cycles: 2737720181 heartbeat IPC: 0.323612 cumulative IPC: 0.352289 (Simulation time: 0 hr 39 min 52 sec) 
Heartbeat CPU 0 instructions: 1060000000 cycles: 2768619969 heartbeat IPC: 0.323627 cumulative IPC: 0.351964 (Simulation time: 0 hr 40 min 15 sec) 
Heartbeat CPU 0 instructions: 1070000003 cycles: 2799299392 heartbeat IPC: 0.325951 cumulative IPC: 0.351675 (Simulation time: 0 hr 40 min 39 sec) 
Heartbeat CPU 0 instructions: 1080000000 cycles: 2829888684 heartbeat IPC: 0.326912 cumulative IPC: 0.351403 (Simulation time: 0 hr 41 min 2 sec) 
Heartbeat CPU 0 instructions: 1090000002 cycles: 2860998339 heartbeat IPC: 0.321444 cumulative IPC: 0.351073 (Simulation time: 0 hr 41 min 26 sec) 
Heartbeat CPU 0 instructions: 1100000000 cycles: 2891173109 heartbeat IPC: 0.331403 cumulative IPC: 0.350864 (Simulation time: 0 hr 41 min 49 sec) 
Finished CPU 0 instructions: 1000000000 cycles: 2850103646 cumulative IPC: 0.350864 (Simulation time: 0 hr 41 min 49 sec) 

ChampSim completed all CPUs

Region of Interest Statistics

CPU 0 cumulative IPC: 0.350864 instructions: 1000000000 cycles: 2850103646
L1D TOTAL     ACCESS:  372191028  HIT:  329074657  MISS:   43116371
L1D LOAD      ACCESS:  263320111  HIT:  224099753  MISS:   39220358
L1D RFO       ACCESS:  108870917  HIT:  104974904  MISS:    3896013
L1D PREFETCH  ACCESS:          0  HIT:          0  MISS:          0
L1D WRITEBACK ACCESS:          0  HIT:          0  MISS:          0
L1D PREFETCH  REQUESTED:          0  ISSUED:          0  USEFUL:          0  USELESS:          0
L1D AVERAGE MISS LATENCY: 81.9189 cycles
L1I TOTAL     ACCESS:  194997513  HIT:  194997511  MISS:          2
L1I LOAD      ACCESS:  194997513  HIT:  194997511  MISS:          2
L1I RFO       ACCESS:          0  HIT:          0  MISS:          0
L1I PREFETCH  ACCESS:          0  HIT:          0  MISS:          0
L1I WRITEBACK ACCESS:          0  HIT:          0  MISS:          0
L1I PREFETCH  REQUESTED:          0  ISSUED:          0  USEFUL:          0  USELESS:          0
L1I AVERAGE MISS LATENCY: 235 cycles
L2C TOTAL     ACCESS:   49086038  HIT:   18184746  MISS:   30901292
L2C LOAD      ACCESS:   39220243  HIT:   11205413  MISS:   28014830
L2C RFO       ACCESS:    3895950  HIT:    1015783  MISS:    2880167
L2C PREFETCH  ACCESS:          0  HIT:          0  MISS:          0
L2C WRITEBACK ACCESS:    5969845  HIT:    5963550  MISS:       6295
L2C PREFETCH  REQUESTED:          0  ISSUED:          0  USEFUL:          0  USELESS:          0
L2C AVERAGE MISS LATENCY: 97.2309 cycles
LLC TOTAL     ACCESS:   35152117  HIT:   22823118  MISS:   12328999
LLC LOAD      ACCESS:   28014751  HIT:   15699571  MISS:   12315180
LLC RFO       ACCESS:    2880082  HIT:    2867000  MISS:      13082
LLC PREFETCH  ACCESS:          0  HIT:          0  MISS:          0
LLC WRITEBACK ACCESS:    4257284  HIT:    4256547  MISS:        737
LLC PREFETCH  REQUESTED:          0  ISSUED:          0  USEFUL:          0  USELESS:          0
LLC AVERAGE MISS LATENCY: 142.211 cycles
Major fault: 0 Minor fault: 151086

DRAM Statistics
 CHANNEL 0
 RQ ROW_BUFFER_HIT:    5668528  ROW_BUFFER_MISS:    6659719
 DBUS_CONGESTED:    1763307
 WQ ROW_BUFFER_HIT:      46888  ROW_BUFFER_MISS:      83237  FULL:          0

 AVG_CONGESTED_CYCLE: 5

CPU 0 Branch Prediction Accuracy: 88.8495% MPKI: 28.0155 Average ROB Occupancy at Mispredict: 14.8608

Branch types
NOT_BRANCH: 748751390 74.8751%
BRANCH_DIRECT_JUMP: 26840018 2.684%
BRANCH_INDIRECT: 0 0%
BRANCH_CONDITIONAL: 170587008 17.0587%
BRANCH_DIRECT_CALL: 25420991 2.5421%
BRANCH_INDIRECT_CALL: 1489642 0.148964%
BRANCH_RETURN: 26910634 2.69106%
BRANCH_OTHER: 0 0%

