
*** ChampSim Multicore Out-of-Order Simulator ***

Warmup Instructions: 100000000
Simulation Instructions: 1000000000
Number of CPUs: 1
LLC sets: 2048
LLC ways: 16
Off-chip DRAM Size: 4096 MB Channels: 1 Width: 64-bit Data Rate: 3200 MT/s

CPU 0 runs /scratch/user/kevin.weston/dpc3-traces/605.champsimtrace.xz
CPU 0 Bimodal branch predictor
Per-line RRPV Initialized
PRRIP State Initialized
Assign SAMPLER_SET[0]: 454  LLC: 2048
SAMPLER_SET[0]: 454
Assign SAMPLER_SET[1]: 1662  LLC: 2048
SAMPLER_SET[1]: 1662
Assign SAMPLER_SET[2]: 1921  LLC: 2048
SAMPLER_SET[2]: 1921
Assign SAMPLER_SET[3]: 1131  LLC: 2048
SAMPLER_SET[3]: 1131
Assign SAMPLER_SET[4]: 331  LLC: 2048
SAMPLER_SET[4]: 331
Assign SAMPLER_SET[5]: 1531  LLC: 2048
SAMPLER_SET[5]: 1531
Assign SAMPLER_SET[6]: 482  LLC: 2048
SAMPLER_SET[6]: 482
Assign SAMPLER_SET[7]: 1275  LLC: 2048
SAMPLER_SET[7]: 1275
Assign SAMPLER_SET[8]: 1876  LLC: 2048
SAMPLER_SET[8]: 1876
Assign SAMPLER_SET[9]: 2038  LLC: 2048
SAMPLER_SET[9]: 2038
Assign SAMPLER_SET[10]: 701  LLC: 2048
SAMPLER_SET[10]: 701
Assign SAMPLER_SET[11]: 479  LLC: 2048
SAMPLER_SET[11]: 479
Assign SAMPLER_SET[12]: 892  LLC: 2048
SAMPLER_SET[12]: 892
Assign SAMPLER_SET[13]: 1820  LLC: 2048
SAMPLER_SET[13]: 1820
Assign SAMPLER_SET[14]: 1505  LLC: 2048
SAMPLER_SET[14]: 1505
Assign SAMPLER_SET[15]: 1159  LLC: 2048
SAMPLER_SET[15]: 1159
Assign SAMPLER_SET[16]: 513  LLC: 2048
SAMPLER_SET[16]: 513
Assign SAMPLER_SET[17]: 703  LLC: 2048
SAMPLER_SET[17]: 703
Assign SAMPLER_SET[18]: 561  LLC: 2048
SAMPLER_SET[18]: 561
Assign SAMPLER_SET[19]: 990  LLC: 2048
SAMPLER_SET[19]: 990
Assign SAMPLER_SET[20]: 342  LLC: 2048
SAMPLER_SET[20]: 342
Assign SAMPLER_SET[21]: 882  LLC: 2048
SAMPLER_SET[21]: 882
Assign SAMPLER_SET[22]: 15  LLC: 2048
SAMPLER_SET[22]: 15
Assign SAMPLER_SET[23]: 71  LLC: 2048
SAMPLER_SET[23]: 71
Assign SAMPLER_SET[24]: 1127  LLC: 2048
SAMPLER_SET[24]: 1127
Assign SAMPLER_SET[25]: 1382  LLC: 2048
SAMPLER_SET[25]: 1382
Assign SAMPLER_SET[26]: 647  LLC: 2048
SAMPLER_SET[26]: 647
Assign SAMPLER_SET[27]: 857  LLC: 2048
SAMPLER_SET[27]: 857
Assign SAMPLER_SET[28]: 1450  LLC: 2048
SAMPLER_SET[28]: 1450
Assign SAMPLER_SET[29]: 1160  LLC: 2048
SAMPLER_SET[29]: 1160
Assign SAMPLER_SET[30]: 1852  LLC: 2048
SAMPLER_SET[30]: 1852
Assign SAMPLER_SET[31]: 1881  LLC: 2048
SAMPLER_SET[31]: 1881
Assign SAMPLER_SET[32]: 1770  LLC: 2048
SAMPLER_SET[32]: 1770
Assign SAMPLER_SET[33]: 1622  LLC: 2048
SAMPLER_SET[33]: 1622
Assign SAMPLER_SET[34]: 275  LLC: 2048
SAMPLER_SET[34]: 275
Assign SAMPLER_SET[35]: 635  LLC: 2048
SAMPLER_SET[35]: 635
Assign SAMPLER_SET[36]: 466  LLC: 2048
SAMPLER_SET[36]: 466
Assign SAMPLER_SET[37]: 1413  LLC: 2048
SAMPLER_SET[37]: 1413
Assign SAMPLER_SET[38]: 417  LLC: 2048
SAMPLER_SET[38]: 417
Assign SAMPLER_SET[39]: 472  LLC: 2048
SAMPLER_SET[39]: 472
Assign SAMPLER_SET[40]: 1340  LLC: 2048
SAMPLER_SET[40]: 1340
Assign SAMPLER_SET[41]: 852  LLC: 2048
SAMPLER_SET[41]: 852
Assign SAMPLER_SET[42]: 1365  LLC: 2048
SAMPLER_SET[42]: 1365
Assign SAMPLER_SET[43]: 47  LLC: 2048
SAMPLER_SET[43]: 47
Assign SAMPLER_SET[44]: 823  LLC: 2048
SAMPLER_SET[44]: 823
Assign SAMPLER_SET[45]: 686  LLC: 2048
SAMPLER_SET[45]: 686
Assign SAMPLER_SET[46]: 1637  LLC: 2048
SAMPLER_SET[46]: 1637
Assign SAMPLER_SET[47]: 1115  LLC: 2048
SAMPLER_SET[47]: 1115
Assign SAMPLER_SET[48]: 986  LLC: 2048
SAMPLER_SET[48]: 986
Assign SAMPLER_SET[49]: 258  LLC: 2048
SAMPLER_SET[49]: 258
Assign SAMPLER_SET[50]: 633  LLC: 2048
SAMPLER_SET[50]: 633
Assign SAMPLER_SET[51]: 920  LLC: 2048
SAMPLER_SET[51]: 920
Assign SAMPLER_SET[52]: 204  LLC: 2048
SAMPLER_SET[52]: 204
Assign SAMPLER_SET[53]: 227  LLC: 2048
SAMPLER_SET[53]: 227
Assign SAMPLER_SET[54]: 1818  LLC: 2048
SAMPLER_SET[54]: 1818
Assign SAMPLER_SET[55]: 886  LLC: 2048
SAMPLER_SET[55]: 886
Assign SAMPLER_SET[56]: 1422  LLC: 2048
SAMPLER_SET[56]: 1422
Assign SAMPLER_SET[57]: 607  LLC: 2048
SAMPLER_SET[57]: 607
Assign SAMPLER_SET[58]: 217  LLC: 2048
SAMPLER_SET[58]: 217
Assign SAMPLER_SET[59]: 1945  LLC: 2048
SAMPLER_SET[59]: 1945
Assign SAMPLER_SET[60]: 143  LLC: 2048
SAMPLER_SET[60]: 143
Assign SAMPLER_SET[61]: 1311  LLC: 2048
SAMPLER_SET[61]: 1311
Assign SAMPLER_SET[62]: 319  LLC: 2048
SAMPLER_SET[62]: 319
Assign SAMPLER_SET[63]: 1846  LLC: 2048
SAMPLER_SET[63]: 1846
Heartbeat CPU 0 instructions: 10000000 cycles: 4114056 heartbeat IPC: 2.43069 cumulative IPC: 2.43069 (Simulation time: 0 hr 0 min 26 sec) 
Heartbeat CPU 0 instructions: 20000000 cycles: 8235704 heartbeat IPC: 2.42621 cumulative IPC: 2.42845 (Simulation time: 0 hr 0 min 51 sec) 
Heartbeat CPU 0 instructions: 30000002 cycles: 12342794 heartbeat IPC: 2.43481 cumulative IPC: 2.43057 (Simulation time: 0 hr 1 min 16 sec) 
Heartbeat CPU 0 instructions: 40000000 cycles: 16453256 heartbeat IPC: 2.43282 cumulative IPC: 2.43113 (Simulation time: 0 hr 1 min 41 sec) 
Heartbeat CPU 0 instructions: 50000000 cycles: 20559637 heartbeat IPC: 2.43523 cumulative IPC: 2.43195 (Simulation time: 0 hr 2 min 7 sec) 
Heartbeat CPU 0 instructions: 60000003 cycles: 24667261 heartbeat IPC: 2.4345 cumulative IPC: 2.43237 (Simulation time: 0 hr 2 min 32 sec) 
Heartbeat CPU 0 instructions: 70000003 cycles: 28779637 heartbeat IPC: 2.43168 cumulative IPC: 2.43228 (Simulation time: 0 hr 2 min 57 sec) 
Heartbeat CPU 0 instructions: 80000000 cycles: 32891095 heartbeat IPC: 2.43223 cumulative IPC: 2.43227 (Simulation time: 0 hr 3 min 22 sec) 
Heartbeat CPU 0 instructions: 90000000 cycles: 37009724 heartbeat IPC: 2.42799 cumulative IPC: 2.43179 (Simulation time: 0 hr 3 min 47 sec) 
Heartbeat CPU 0 instructions: 100000000 cycles: 41101746 heartbeat IPC: 2.44378 cumulative IPC: 2.43299 (Simulation time: 0 hr 4 min 12 sec) 

Warmup complete CPU 0 instructions: 100000002 cycles: 41101747 (Simulation time: 0 hr 4 min 12 sec) 

Heartbeat CPU 0 instructions: 110000000 cycles: 69424016 heartbeat IPC: 0.353079 cumulative IPC: 0.353079 (Simulation time: 0 hr 4 min 33 sec) 
Heartbeat CPU 0 instructions: 120000000 cycles: 96820047 heartbeat IPC: 0.365016 cumulative IPC: 0.358948 (Simulation time: 0 hr 4 min 54 sec) 
Heartbeat CPU 0 instructions: 130000000 cycles: 124403711 heartbeat IPC: 0.362533 cumulative IPC: 0.360136 (Simulation time: 0 hr 5 min 16 sec) 
Heartbeat CPU 0 instructions: 140000002 cycles: 152985738 heartbeat IPC: 0.34987 cumulative IPC: 0.357513 (Simulation time: 0 hr 5 min 37 sec) 
Heartbeat CPU 0 instructions: 150000000 cycles: 181644851 heartbeat IPC: 0.348929 cumulative IPC: 0.355763 (Simulation time: 0 hr 5 min 58 sec) 
Heartbeat CPU 0 instructions: 160000000 cycles: 210152513 heartbeat IPC: 0.350783 cumulative IPC: 0.354923 (Simulation time: 0 hr 6 min 19 sec) 
Heartbeat CPU 0 instructions: 170000000 cycles: 239827233 heartbeat IPC: 0.336987 cumulative IPC: 0.352245 (Simulation time: 0 hr 6 min 40 sec) 
Heartbeat CPU 0 instructions: 180000001 cycles: 267751953 heartbeat IPC: 0.358106 cumulative IPC: 0.352967 (Simulation time: 0 hr 7 min 1 sec) 
Heartbeat CPU 0 instructions: 190000002 cycles: 296138080 heartbeat IPC: 0.352285 cumulative IPC: 0.352891 (Simulation time: 0 hr 7 min 22 sec) 
Heartbeat CPU 0 instructions: 200000000 cycles: 325807147 heartbeat IPC: 0.337051 cumulative IPC: 0.35124 (Simulation time: 0 hr 7 min 44 sec) 
Heartbeat CPU 0 instructions: 210000003 cycles: 355202022 heartbeat IPC: 0.340195 cumulative IPC: 0.350207 (Simulation time: 0 hr 8 min 5 sec) 
Heartbeat CPU 0 instructions: 220000000 cycles: 382593126 heartbeat IPC: 0.365082 cumulative IPC: 0.3514 (Simulation time: 0 hr 8 min 26 sec) 
Heartbeat CPU 0 instructions: 230000000 cycles: 411393222 heartbeat IPC: 0.347221 cumulative IPC: 0.351075 (Simulation time: 0 hr 8 min 47 sec) 
Heartbeat CPU 0 instructions: 240000000 cycles: 438896893 heartbeat IPC: 0.363588 cumulative IPC: 0.35194 (Simulation time: 0 hr 9 min 8 sec) 
Heartbeat CPU 0 instructions: 250000001 cycles: 467075505 heartbeat IPC: 0.354879 cumulative IPC: 0.352134 (Simulation time: 0 hr 9 min 29 sec) 
Heartbeat CPU 0 instructions: 260000002 cycles: 495551642 heartbeat IPC: 0.351171 cumulative IPC: 0.352074 (Simulation time: 0 hr 9 min 50 sec) 
Heartbeat CPU 0 instructions: 270000000 cycles: 523920729 heartbeat IPC: 0.352496 cumulative IPC: 0.352099 (Simulation time: 0 hr 10 min 11 sec) 
Heartbeat CPU 0 instructions: 280000001 cycles: 552166226 heartbeat IPC: 0.354039 cumulative IPC: 0.352206 (Simulation time: 0 hr 10 min 32 sec) 
Heartbeat CPU 0 instructions: 290000003 cycles: 580626190 heartbeat IPC: 0.351371 cumulative IPC: 0.352162 (Simulation time: 0 hr 10 min 53 sec) 
Heartbeat CPU 0 instructions: 300000000 cycles: 608844188 heartbeat IPC: 0.354384 cumulative IPC: 0.352272 (Simulation time: 0 hr 11 min 14 sec) 
Heartbeat CPU 0 instructions: 310000000 cycles: 635721011 heartbeat IPC: 0.372068 cumulative IPC: 0.353167 (Simulation time: 0 hr 11 min 35 sec) 
Heartbeat CPU 0 instructions: 320000001 cycles: 663607475 heartbeat IPC: 0.358597 cumulative IPC: 0.35341 (Simulation time: 0 hr 11 min 56 sec) 
Heartbeat CPU 0 instructions: 330000000 cycles: 690908182 heartbeat IPC: 0.366291 cumulative IPC: 0.353952 (Simulation time: 0 hr 12 min 17 sec) 
Heartbeat CPU 0 instructions: 340000003 cycles: 717620551 heartbeat IPC: 0.374359 cumulative IPC: 0.354757 (Simulation time: 0 hr 12 min 37 sec) 
Heartbeat CPU 0 instructions: 350000003 cycles: 744965484 heartbeat IPC: 0.365698 cumulative IPC: 0.355182 (Simulation time: 0 hr 12 min 58 sec) 
Heartbeat CPU 0 instructions: 360000003 cycles: 772007604 heartbeat IPC: 0.369794 cumulative IPC: 0.355723 (Simulation time: 0 hr 13 min 19 sec) 
Heartbeat CPU 0 instructions: 370000002 cycles: 799169903 heartbeat IPC: 0.368157 cumulative IPC: 0.356169 (Simulation time: 0 hr 13 min 39 sec) 
Heartbeat CPU 0 instructions: 380000001 cycles: 826823541 heartbeat IPC: 0.361616 cumulative IPC: 0.35636 (Simulation time: 0 hr 14 min 0 sec) 
Heartbeat CPU 0 instructions: 390000000 cycles: 853725915 heartbeat IPC: 0.371714 cumulative IPC: 0.356869 (Simulation time: 0 hr 14 min 21 sec) 
Heartbeat CPU 0 instructions: 400000001 cycles: 880758742 heartbeat IPC: 0.369921 cumulative IPC: 0.357289 (Simulation time: 0 hr 14 min 42 sec) 
Heartbeat CPU 0 instructions: 410000000 cycles: 908166877 heartbeat IPC: 0.364855 cumulative IPC: 0.357528 (Simulation time: 0 hr 15 min 3 sec) 
Heartbeat CPU 0 instructions: 420000003 cycles: 936025601 heartbeat IPC: 0.358954 cumulative IPC: 0.357572 (Simulation time: 0 hr 15 min 24 sec) 
Heartbeat CPU 0 instructions: 430000000 cycles: 963528409 heartbeat IPC: 0.363599 cumulative IPC: 0.357752 (Simulation time: 0 hr 15 min 44 sec) 
Heartbeat CPU 0 instructions: 440000000 cycles: 990136886 heartbeat IPC: 0.37582 cumulative IPC: 0.358259 (Simulation time: 0 hr 16 min 5 sec) 
Heartbeat CPU 0 instructions: 450000002 cycles: 1017341456 heartbeat IPC: 0.367585 cumulative IPC: 0.358519 (Simulation time: 0 hr 16 min 25 sec) 
Heartbeat CPU 0 instructions: 460000001 cycles: 1044716173 heartbeat IPC: 0.365301 cumulative IPC: 0.358703 (Simulation time: 0 hr 16 min 45 sec) 
Heartbeat CPU 0 instructions: 470000003 cycles: 1072843941 heartbeat IPC: 0.355521 cumulative IPC: 0.358617 (Simulation time: 0 hr 17 min 6 sec) 
Heartbeat CPU 0 instructions: 480000000 cycles: 1100560199 heartbeat IPC: 0.360799 cumulative IPC: 0.358674 (Simulation time: 0 hr 17 min 26 sec) 
Heartbeat CPU 0 instructions: 490000003 cycles: 1128867152 heartbeat IPC: 0.35327 cumulative IPC: 0.358533 (Simulation time: 0 hr 17 min 47 sec) 
Heartbeat CPU 0 instructions: 500000000 cycles: 1157311468 heartbeat IPC: 0.351564 cumulative IPC: 0.358356 (Simulation time: 0 hr 18 min 7 sec) 
Heartbeat CPU 0 instructions: 510000001 cycles: 1184667861 heartbeat IPC: 0.365545 cumulative IPC: 0.358528 (Simulation time: 0 hr 18 min 28 sec) 
Heartbeat CPU 0 instructions: 520000000 cycles: 1212155859 heartbeat IPC: 0.363795 cumulative IPC: 0.358651 (Simulation time: 0 hr 18 min 48 sec) 
Heartbeat CPU 0 instructions: 530000003 cycles: 1240685957 heartbeat IPC: 0.350507 cumulative IPC: 0.358458 (Simulation time: 0 hr 19 min 8 sec) 
Heartbeat CPU 0 instructions: 540000001 cycles: 1268659709 heartbeat IPC: 0.357478 cumulative IPC: 0.358435 (Simulation time: 0 hr 19 min 29 sec) 
Heartbeat CPU 0 instructions: 550000000 cycles: 1297328046 heartbeat IPC: 0.348817 cumulative IPC: 0.358216 (Simulation time: 0 hr 19 min 50 sec) 
Heartbeat CPU 0 instructions: 560000000 cycles: 1326002952 heartbeat IPC: 0.348737 cumulative IPC: 0.358004 (Simulation time: 0 hr 20 min 10 sec) 
Heartbeat CPU 0 instructions: 570000000 cycles: 1362113404 heartbeat IPC: 0.276928 cumulative IPC: 0.355788 (Simulation time: 0 hr 20 min 32 sec) 
Heartbeat CPU 0 instructions: 580000001 cycles: 1391306368 heartbeat IPC: 0.342548 cumulative IPC: 0.355502 (Simulation time: 0 hr 20 min 54 sec) 
Heartbeat CPU 0 instructions: 590000000 cycles: 1420384521 heartbeat IPC: 0.343901 cumulative IPC: 0.355257 (Simulation time: 0 hr 21 min 15 sec) 
Heartbeat CPU 0 instructions: 600000000 cycles: 1448996276 heartbeat IPC: 0.349507 cumulative IPC: 0.35514 (Simulation time: 0 hr 21 min 37 sec) 
Heartbeat CPU 0 instructions: 610000001 cycles: 1477724680 heartbeat IPC: 0.348088 cumulative IPC: 0.354999 (Simulation time: 0 hr 21 min 58 sec) 
Heartbeat CPU 0 instructions: 620000001 cycles: 1506604006 heartbeat IPC: 0.346268 cumulative IPC: 0.354827 (Simulation time: 0 hr 22 min 19 sec) 
Heartbeat CPU 0 instructions: 630000001 cycles: 1536099184 heartbeat IPC: 0.339038 cumulative IPC: 0.354516 (Simulation time: 0 hr 22 min 41 sec) 
Heartbeat CPU 0 instructions: 640000002 cycles: 1564817589 heartbeat IPC: 0.348209 cumulative IPC: 0.354397 (Simulation time: 0 hr 23 min 2 sec) 
Heartbeat CPU 0 instructions: 650000000 cycles: 1593113452 heartbeat IPC: 0.353408 cumulative IPC: 0.354379 (Simulation time: 0 hr 23 min 23 sec) 
Heartbeat CPU 0 instructions: 660000000 cycles: 1621535339 heartbeat IPC: 0.351842 cumulative IPC: 0.354333 (Simulation time: 0 hr 23 min 45 sec) 
Heartbeat CPU 0 instructions: 670000000 cycles: 1649865921 heartbeat IPC: 0.352975 cumulative IPC: 0.354309 (Simulation time: 0 hr 24 min 6 sec) 
Heartbeat CPU 0 instructions: 680000000 cycles: 1678374419 heartbeat IPC: 0.350773 cumulative IPC: 0.354248 (Simulation time: 0 hr 24 min 28 sec) 
Heartbeat CPU 0 instructions: 690000002 cycles: 1706401530 heartbeat IPC: 0.356797 cumulative IPC: 0.354291 (Simulation time: 0 hr 24 min 49 sec) 
Heartbeat CPU 0 instructions: 700000000 cycles: 1735107217 heartbeat IPC: 0.348363 cumulative IPC: 0.35419 (Simulation time: 0 hr 25 min 10 sec) 
Heartbeat CPU 0 instructions: 710000000 cycles: 1763250628 heartbeat IPC: 0.355323 cumulative IPC: 0.354209 (Simulation time: 0 hr 25 min 31 sec) 
Heartbeat CPU 0 instructions: 720000000 cycles: 1791756735 heartbeat IPC: 0.350802 cumulative IPC: 0.354153 (Simulation time: 0 hr 25 min 53 sec) 
Heartbeat CPU 0 instructions: 730000000 cycles: 1820542730 heartbeat IPC: 0.347391 cumulative IPC: 0.354044 (Simulation time: 0 hr 26 min 14 sec) 
Heartbeat CPU 0 instructions: 740000002 cycles: 1849292537 heartbeat IPC: 0.347828 cumulative IPC: 0.353945 (Simulation time: 0 hr 26 min 36 sec) 
Heartbeat CPU 0 instructions: 750000001 cycles: 1878355338 heartbeat IPC: 0.344082 cumulative IPC: 0.353789 (Simulation time: 0 hr 26 min 58 sec) 
Heartbeat CPU 0 instructions: 760000002 cycles: 1907415283 heartbeat IPC: 0.344116 cumulative IPC: 0.353638 (Simulation time: 0 hr 27 min 20 sec) 
Heartbeat CPU 0 instructions: 770000000 cycles: 1937505421 heartbeat IPC: 0.332335 cumulative IPC: 0.3533 (Simulation time: 0 hr 27 min 41 sec) 
Heartbeat CPU 0 instructions: 780000002 cycles: 1966619868 heartbeat IPC: 0.343472 cumulative IPC: 0.353152 (Simulation time: 0 hr 28 min 3 sec) 
Heartbeat CPU 0 instructions: 790000001 cycles: 1995464697 heartbeat IPC: 0.346683 cumulative IPC: 0.353056 (Simulation time: 0 hr 28 min 25 sec) 
Heartbeat CPU 0 instructions: 800000000 cycles: 2025991692 heartbeat IPC: 0.327579 cumulative IPC: 0.352664 (Simulation time: 0 hr 28 min 47 sec) 
Heartbeat CPU 0 instructions: 810000003 cycles: 2055464266 heartbeat IPC: 0.339299 cumulative IPC: 0.352469 (Simulation time: 0 hr 29 min 8 sec) 
Heartbeat CPU 0 instructions: 820000002 cycles: 2085328668 heartbeat IPC: 0.334847 cumulative IPC: 0.352211 (Simulation time: 0 hr 29 min 30 sec) 
Heartbeat CPU 0 instructions: 830000000 cycles: 2115048129 heartbeat IPC: 0.33648 cumulative IPC: 0.351986 (Simulation time: 0 hr 29 min 53 sec) 
Heartbeat CPU 0 instructions: 840000001 cycles: 2144099359 heartbeat IPC: 0.34422 cumulative IPC: 0.351879 (Simulation time: 0 hr 30 min 15 sec) 
Heartbeat CPU 0 instructions: 850000001 cycles: 2175020273 heartbeat IPC: 0.323406 cumulative IPC: 0.351466 (Simulation time: 0 hr 30 min 37 sec) 
Heartbeat CPU 0 instructions: 860000002 cycles: 2204521246 heartbeat IPC: 0.338972 cumulative IPC: 0.351296 (Simulation time: 0 hr 31 min 0 sec) 
Heartbeat CPU 0 instructions: 870000001 cycles: 2234502602 heartbeat IPC: 0.333541 cumulative IPC: 0.351053 (Simulation time: 0 hr 31 min 22 sec) 
Heartbeat CPU 0 instructions: 880000000 cycles: 2264943807 heartbeat IPC: 0.328502 cumulative IPC: 0.350744 (Simulation time: 0 hr 31 min 45 sec) 
Heartbeat CPU 0 instructions: 890000000 cycles: 2295676172 heartbeat IPC: 0.32539 cumulative IPC: 0.350399 (Simulation time: 0 hr 32 min 8 sec) 
Heartbeat CPU 0 instructions: 900000000 cycles: 2328674340 heartbeat IPC: 0.303047 cumulative IPC: 0.349716 (Simulation time: 0 hr 32 min 32 sec) 
Heartbeat CPU 0 instructions: 910000003 cycles: 2358564378 heartbeat IPC: 0.33456 cumulative IPC: 0.34952 (Simulation time: 0 hr 32 min 55 sec) 
Heartbeat CPU 0 instructions: 920000001 cycles: 2388895726 heartbeat IPC: 0.329692 cumulative IPC: 0.349264 (Simulation time: 0 hr 33 min 18 sec) 
Heartbeat CPU 0 instructions: 930000003 cycles: 2419000526 heartbeat IPC: 0.332173 cumulative IPC: 0.349048 (Simulation time: 0 hr 33 min 41 sec) 
Heartbeat CPU 0 instructions: 940000000 cycles: 2449730828 heartbeat IPC: 0.325412 cumulative IPC: 0.348746 (Simulation time: 0 hr 34 min 4 sec) 
Heartbeat CPU 0 instructions: 950000003 cycles: 2480008681 heartbeat IPC: 0.330275 cumulative IPC: 0.348517 (Simulation time: 0 hr 34 min 26 sec) 
Heartbeat CPU 0 instructions: 960000001 cycles: 2509535890 heartbeat IPC: 0.338671 cumulative IPC: 0.348399 (Simulation time: 0 hr 34 min 49 sec) 
Heartbeat CPU 0 instructions: 970000002 cycles: 2539684541 heartbeat IPC: 0.33169 cumulative IPC: 0.348197 (Simulation time: 0 hr 35 min 12 sec) 
Heartbeat CPU 0 instructions: 980000003 cycles: 2569586287 heartbeat IPC: 0.334429 cumulative IPC: 0.348035 (Simulation time: 0 hr 35 min 34 sec) 
Heartbeat CPU 0 instructions: 990000000 cycles: 2599517666 heartbeat IPC: 0.334097 cumulative IPC: 0.347872 (Simulation time: 0 hr 35 min 57 sec) 
Heartbeat CPU 0 instructions: 1000000002 cycles: 2629855584 heartbeat IPC: 0.329621 cumulative IPC: 0.347658 (Simulation time: 0 hr 36 min 20 sec) 
Heartbeat CPU 0 instructions: 1010000002 cycles: 2660075880 heartbeat IPC: 0.330903 cumulative IPC: 0.347464 (Simulation time: 0 hr 36 min 43 sec) 
Heartbeat CPU 0 instructions: 1020000002 cycles: 2690409072 heartbeat IPC: 0.329672 cumulative IPC: 0.347261 (Simulation time: 0 hr 37 min 5 sec) 
Heartbeat CPU 0 instructions: 1030000003 cycles: 2720316660 heartbeat IPC: 0.334363 cumulative IPC: 0.347117 (Simulation time: 0 hr 37 min 27 sec) 
Heartbeat CPU 0 instructions: 1040000001 cycles: 2750640623 heartbeat IPC: 0.329772 cumulative IPC: 0.346922 (Simulation time: 0 hr 37 min 50 sec) 
Heartbeat CPU 0 instructions: 1050000001 cycles: 2781223199 heartbeat IPC: 0.326984 cumulative IPC: 0.3467 (Simulation time: 0 hr 38 min 13 sec) 
Heartbeat CPU 0 instructions: 1060000000 cycles: 2810871753 heartbeat IPC: 0.337285 cumulative IPC: 0.346599 (Simulation time: 0 hr 38 min 35 sec) 
Heartbeat CPU 0 instructions: 1070000003 cycles: 2840712031 heartbeat IPC: 0.335118 cumulative IPC: 0.346477 (Simulation time: 0 hr 38 min 57 sec) 
Heartbeat CPU 0 instructions: 1080000000 cycles: 2871727939 heartbeat IPC: 0.322415 cumulative IPC: 0.346213 (Simulation time: 0 hr 39 min 19 sec) 
Heartbeat CPU 0 instructions: 1090000002 cycles: 2901703611 heartbeat IPC: 0.333604 cumulative IPC: 0.346081 (Simulation time: 0 hr 39 min 41 sec) 
Heartbeat CPU 0 instructions: 1100000000 cycles: 2930630421 heartbeat IPC: 0.3457 cumulative IPC: 0.346077 (Simulation time: 0 hr 40 min 3 sec) 
Finished CPU 0 instructions: 1000000000 cycles: 2889528675 cumulative IPC: 0.346077 (Simulation time: 0 hr 40 min 3 sec) 

ChampSim completed all CPUs

Region of Interest Statistics

CPU 0 cumulative IPC: 0.346077 instructions: 1000000000 cycles: 2889528675
L1D TOTAL     ACCESS:  372182561  HIT:  329066211  MISS:   43116350
L1D LOAD      ACCESS:  263312947  HIT:  224092631  MISS:   39220316
L1D RFO       ACCESS:  108869614  HIT:  104973580  MISS:    3896034
L1D PREFETCH  ACCESS:          0  HIT:          0  MISS:          0
L1D WRITEBACK ACCESS:          0  HIT:          0  MISS:          0
L1D PREFETCH  REQUESTED:          0  ISSUED:          0  USEFUL:          0  USELESS:          0
L1D AVERAGE MISS LATENCY: 79.0231 cycles
L1I TOTAL     ACCESS:  194973269  HIT:  194973267  MISS:          2
L1I LOAD      ACCESS:  194973269  HIT:  194973267  MISS:          2
L1I RFO       ACCESS:          0  HIT:          0  MISS:          0
L1I PREFETCH  ACCESS:          0  HIT:          0  MISS:          0
L1I WRITEBACK ACCESS:          0  HIT:          0  MISS:          0
L1I PREFETCH  REQUESTED:          0  ISSUED:          0  USEFUL:          0  USELESS:          0
L1I AVERAGE MISS LATENCY: 235 cycles
L2C TOTAL     ACCESS:   49086024  HIT:   18163269  MISS:   30922755
L2C LOAD      ACCESS:   39220205  HIT:   11173629  MISS:   28046576
L2C RFO       ACCESS:    3895968  HIT:    1025875  MISS:    2870093
L2C PREFETCH  ACCESS:          0  HIT:          0  MISS:          0
L2C WRITEBACK ACCESS:    5969851  HIT:    5963765  MISS:       6086
L2C PREFETCH  REQUESTED:          0  ISSUED:          0  USEFUL:          0  USELESS:          0
L2C AVERAGE MISS LATENCY: 93.1097 cycles
LLC TOTAL     ACCESS:   35170202  HIT:   22772057  MISS:   12398145
LLC LOAD      ACCESS:   28046471  HIT:   15707273  MISS:   12339198
LLC RFO       ACCESS:    2869988  HIT:    2860559  MISS:       9429
LLC PREFETCH  ACCESS:          0  HIT:          0  MISS:          0
LLC WRITEBACK ACCESS:    4253743  HIT:    4204225  MISS:      49518
LLC PREFETCH  REQUESTED:          0  ISSUED:          0  USEFUL:          0  USELESS:          0
LLC AVERAGE MISS LATENCY: 131.068 cycles
Major fault: 0 Minor fault: 151086
==============================
Perceptron RRIP Stats:
   Num Updates:          1075209
   Num Primary Trains:   37621
   Num Secondary Trains: 38410
==============================
primary_perceptron #0: -5 -5 1 7 -1 -1 1 1 -5 -3 7 -1 -1 1 -1 -17 
secondary_perceptron #0: -4 -2 2 8 2 0 4 2 -10 -2 2 -2 -2 4 6 -2 0 6 0 2 -26 


DRAM Statistics
 CHANNEL 0
 RQ ROW_BUFFER_HIT:    6802062  ROW_BUFFER_MISS:    5546561
 DBUS_CONGESTED:    1866605
 WQ ROW_BUFFER_HIT:      40220  ROW_BUFFER_MISS:      70582  FULL:          0

 AVG_CONGESTED_CYCLE: 5

CPU 0 Branch Prediction Accuracy: 88.8495% MPKI: 28.0155 Average ROB Occupancy at Mispredict: 14.8633

Branch types
NOT_BRANCH: 748751390 74.8751%
BRANCH_DIRECT_JUMP: 26840018 2.684%
BRANCH_INDIRECT: 0 0%
BRANCH_CONDITIONAL: 170587008 17.0587%
BRANCH_DIRECT_CALL: 25420991 2.5421%
BRANCH_INDIRECT_CALL: 1489642 0.148964%
BRANCH_RETURN: 26910634 2.69106%
BRANCH_OTHER: 0 0%

