
*** ChampSim Multicore Out-of-Order Simulator ***

Warmup Instructions: 100000000
Simulation Instructions: 1000000000
Number of CPUs: 1
LLC sets: 2048
LLC ways: 16
Off-chip DRAM Size: 4096 MB Channels: 1 Width: 64-bit Data Rate: 3200 MT/s

CPU 0 runs /scratch/user/kevin.weston/dpc3-traces/605.champsimtrace.xz
CPU 0 Bimodal branch predictor
Per-line RRPV Initialized
PRRIP State Initialized
Assign SAMPLER_SET[0]: 454  LLC: 2048
SAMPLER_SET[0]: 454
Assign SAMPLER_SET[1]: 1662  LLC: 2048
SAMPLER_SET[1]: 1662
Assign SAMPLER_SET[2]: 1921  LLC: 2048
SAMPLER_SET[2]: 1921
Assign SAMPLER_SET[3]: 1131  LLC: 2048
SAMPLER_SET[3]: 1131
Assign SAMPLER_SET[4]: 331  LLC: 2048
SAMPLER_SET[4]: 331
Assign SAMPLER_SET[5]: 1531  LLC: 2048
SAMPLER_SET[5]: 1531
Assign SAMPLER_SET[6]: 482  LLC: 2048
SAMPLER_SET[6]: 482
Assign SAMPLER_SET[7]: 1275  LLC: 2048
SAMPLER_SET[7]: 1275
Assign SAMPLER_SET[8]: 1876  LLC: 2048
SAMPLER_SET[8]: 1876
Assign SAMPLER_SET[9]: 2038  LLC: 2048
SAMPLER_SET[9]: 2038
Assign SAMPLER_SET[10]: 701  LLC: 2048
SAMPLER_SET[10]: 701
Assign SAMPLER_SET[11]: 479  LLC: 2048
SAMPLER_SET[11]: 479
Assign SAMPLER_SET[12]: 892  LLC: 2048
SAMPLER_SET[12]: 892
Assign SAMPLER_SET[13]: 1820  LLC: 2048
SAMPLER_SET[13]: 1820
Assign SAMPLER_SET[14]: 1505  LLC: 2048
SAMPLER_SET[14]: 1505
Assign SAMPLER_SET[15]: 1159  LLC: 2048
SAMPLER_SET[15]: 1159
Assign SAMPLER_SET[16]: 513  LLC: 2048
SAMPLER_SET[16]: 513
Assign SAMPLER_SET[17]: 703  LLC: 2048
SAMPLER_SET[17]: 703
Assign SAMPLER_SET[18]: 561  LLC: 2048
SAMPLER_SET[18]: 561
Assign SAMPLER_SET[19]: 990  LLC: 2048
SAMPLER_SET[19]: 990
Assign SAMPLER_SET[20]: 342  LLC: 2048
SAMPLER_SET[20]: 342
Assign SAMPLER_SET[21]: 882  LLC: 2048
SAMPLER_SET[21]: 882
Assign SAMPLER_SET[22]: 15  LLC: 2048
SAMPLER_SET[22]: 15
Assign SAMPLER_SET[23]: 71  LLC: 2048
SAMPLER_SET[23]: 71
Assign SAMPLER_SET[24]: 1127  LLC: 2048
SAMPLER_SET[24]: 1127
Assign SAMPLER_SET[25]: 1382  LLC: 2048
SAMPLER_SET[25]: 1382
Assign SAMPLER_SET[26]: 647  LLC: 2048
SAMPLER_SET[26]: 647
Assign SAMPLER_SET[27]: 857  LLC: 2048
SAMPLER_SET[27]: 857
Assign SAMPLER_SET[28]: 1450  LLC: 2048
SAMPLER_SET[28]: 1450
Assign SAMPLER_SET[29]: 1160  LLC: 2048
SAMPLER_SET[29]: 1160
Assign SAMPLER_SET[30]: 1852  LLC: 2048
SAMPLER_SET[30]: 1852
Assign SAMPLER_SET[31]: 1881  LLC: 2048
SAMPLER_SET[31]: 1881
Assign SAMPLER_SET[32]: 1770  LLC: 2048
SAMPLER_SET[32]: 1770
Assign SAMPLER_SET[33]: 1622  LLC: 2048
SAMPLER_SET[33]: 1622
Assign SAMPLER_SET[34]: 275  LLC: 2048
SAMPLER_SET[34]: 275
Assign SAMPLER_SET[35]: 635  LLC: 2048
SAMPLER_SET[35]: 635
Assign SAMPLER_SET[36]: 466  LLC: 2048
SAMPLER_SET[36]: 466
Assign SAMPLER_SET[37]: 1413  LLC: 2048
SAMPLER_SET[37]: 1413
Assign SAMPLER_SET[38]: 417  LLC: 2048
SAMPLER_SET[38]: 417
Assign SAMPLER_SET[39]: 472  LLC: 2048
SAMPLER_SET[39]: 472
Assign SAMPLER_SET[40]: 1340  LLC: 2048
SAMPLER_SET[40]: 1340
Assign SAMPLER_SET[41]: 852  LLC: 2048
SAMPLER_SET[41]: 852
Assign SAMPLER_SET[42]: 1365  LLC: 2048
SAMPLER_SET[42]: 1365
Assign SAMPLER_SET[43]: 47  LLC: 2048
SAMPLER_SET[43]: 47
Assign SAMPLER_SET[44]: 823  LLC: 2048
SAMPLER_SET[44]: 823
Assign SAMPLER_SET[45]: 686  LLC: 2048
SAMPLER_SET[45]: 686
Assign SAMPLER_SET[46]: 1637  LLC: 2048
SAMPLER_SET[46]: 1637
Assign SAMPLER_SET[47]: 1115  LLC: 2048
SAMPLER_SET[47]: 1115
Assign SAMPLER_SET[48]: 986  LLC: 2048
SAMPLER_SET[48]: 986
Assign SAMPLER_SET[49]: 258  LLC: 2048
SAMPLER_SET[49]: 258
Assign SAMPLER_SET[50]: 633  LLC: 2048
SAMPLER_SET[50]: 633
Assign SAMPLER_SET[51]: 920  LLC: 2048
SAMPLER_SET[51]: 920
Assign SAMPLER_SET[52]: 204  LLC: 2048
SAMPLER_SET[52]: 204
Assign SAMPLER_SET[53]: 227  LLC: 2048
SAMPLER_SET[53]: 227
Assign SAMPLER_SET[54]: 1818  LLC: 2048
SAMPLER_SET[54]: 1818
Assign SAMPLER_SET[55]: 886  LLC: 2048
SAMPLER_SET[55]: 886
Assign SAMPLER_SET[56]: 1422  LLC: 2048
SAMPLER_SET[56]: 1422
Assign SAMPLER_SET[57]: 607  LLC: 2048
SAMPLER_SET[57]: 607
Assign SAMPLER_SET[58]: 217  LLC: 2048
SAMPLER_SET[58]: 217
Assign SAMPLER_SET[59]: 1945  LLC: 2048
SAMPLER_SET[59]: 1945
Assign SAMPLER_SET[60]: 143  LLC: 2048
SAMPLER_SET[60]: 143
Assign SAMPLER_SET[61]: 1311  LLC: 2048
SAMPLER_SET[61]: 1311
Assign SAMPLER_SET[62]: 319  LLC: 2048
SAMPLER_SET[62]: 319
Assign SAMPLER_SET[63]: 1846  LLC: 2048
SAMPLER_SET[63]: 1846
Assign SAMPLER_SET[64]: 238  LLC: 2048
SAMPLER_SET[64]: 238
Assign SAMPLER_SET[65]: 67  LLC: 2048
SAMPLER_SET[65]: 67
Assign SAMPLER_SET[66]: 1912  LLC: 2048
SAMPLER_SET[66]: 1912
Assign SAMPLER_SET[67]: 1613  LLC: 2048
SAMPLER_SET[67]: 1613
Assign SAMPLER_SET[68]: 1293  LLC: 2048
SAMPLER_SET[68]: 1293
Assign SAMPLER_SET[69]: 1018  LLC: 2048
SAMPLER_SET[69]: 1018
Assign SAMPLER_SET[70]: 1982  LLC: 2048
SAMPLER_SET[70]: 1982
Assign SAMPLER_SET[71]: 1702  LLC: 2048
SAMPLER_SET[71]: 1702
Assign SAMPLER_SET[72]: 1498  LLC: 2048
SAMPLER_SET[72]: 1498
Assign SAMPLER_SET[73]: 228  LLC: 2048
SAMPLER_SET[73]: 228
Assign SAMPLER_SET[74]: 1414  LLC: 2048
SAMPLER_SET[74]: 1414
Assign SAMPLER_SET[75]: 1166  LLC: 2048
SAMPLER_SET[75]: 1166
Assign SAMPLER_SET[76]: 732  LLC: 2048
SAMPLER_SET[76]: 732
Assign SAMPLER_SET[77]: 297  LLC: 2048
SAMPLER_SET[77]: 297
Assign SAMPLER_SET[78]: 1133  LLC: 2048
SAMPLER_SET[78]: 1133
Assign SAMPLER_SET[79]: 846  LLC: 2048
SAMPLER_SET[79]: 846
Assign SAMPLER_SET[80]: 767  LLC: 2048
SAMPLER_SET[80]: 767
Assign SAMPLER_SET[81]: 1878  LLC: 2048
SAMPLER_SET[81]: 1878
Assign SAMPLER_SET[82]: 993  LLC: 2048
SAMPLER_SET[82]: 993
Assign SAMPLER_SET[83]: 1392  LLC: 2048
SAMPLER_SET[83]: 1392
Assign SAMPLER_SET[84]: 1568  LLC: 2048
SAMPLER_SET[84]: 1568
Assign SAMPLER_SET[85]: 1787  LLC: 2048
SAMPLER_SET[85]: 1787
Assign SAMPLER_SET[86]: 399  LLC: 2048
SAMPLER_SET[86]: 399
Assign SAMPLER_SET[87]: 1201  LLC: 2048
SAMPLER_SET[87]: 1201
Assign SAMPLER_SET[88]: 856  LLC: 2048
SAMPLER_SET[88]: 856
Assign SAMPLER_SET[89]: 773  LLC: 2048
SAMPLER_SET[89]: 773
Assign SAMPLER_SET[90]: 1680  LLC: 2048
SAMPLER_SET[90]: 1680
Assign SAMPLER_SET[91]: 1477  LLC: 2048
SAMPLER_SET[91]: 1477
Assign SAMPLER_SET[92]: 9  LLC: 2048
SAMPLER_SET[92]: 9
Assign SAMPLER_SET[93]: 1500  LLC: 2048
SAMPLER_SET[93]: 1500
Assign SAMPLER_SET[94]: 851  LLC: 2048
SAMPLER_SET[94]: 851
Assign SAMPLER_SET[95]: 973  LLC: 2048
SAMPLER_SET[95]: 973
Assign SAMPLER_SET[96]: 938  LLC: 2048
SAMPLER_SET[96]: 938
Assign SAMPLER_SET[97]: 1851  LLC: 2048
SAMPLER_SET[97]: 1851
Assign SAMPLER_SET[98]: 1608  LLC: 2048
SAMPLER_SET[98]: 1608
Assign SAMPLER_SET[99]: 1945  LLC: 2048
Assign SAMPLER_SET[99]: 1106  LLC: 2048
SAMPLER_SET[99]: 1106
Assign SAMPLER_SET[100]: 979  LLC: 2048
SAMPLER_SET[100]: 979
Assign SAMPLER_SET[101]: 338  LLC: 2048
SAMPLER_SET[101]: 338
Assign SAMPLER_SET[102]: 1693  LLC: 2048
SAMPLER_SET[102]: 1693
Assign SAMPLER_SET[103]: 6  LLC: 2048
SAMPLER_SET[103]: 6
Assign SAMPLER_SET[104]: 671  LLC: 2048
SAMPLER_SET[104]: 671
Assign SAMPLER_SET[105]: 490  LLC: 2048
SAMPLER_SET[105]: 490
Assign SAMPLER_SET[106]: 1461  LLC: 2048
SAMPLER_SET[106]: 1461
Assign SAMPLER_SET[107]: 1730  LLC: 2048
SAMPLER_SET[107]: 1730
Assign SAMPLER_SET[108]: 1030  LLC: 2048
SAMPLER_SET[108]: 1030
Assign SAMPLER_SET[109]: 19  LLC: 2048
SAMPLER_SET[109]: 19
Assign SAMPLER_SET[110]: 920  LLC: 2048
Assign SAMPLER_SET[110]: 329  LLC: 2048
SAMPLER_SET[110]: 329
Assign SAMPLER_SET[111]: 1714  LLC: 2048
SAMPLER_SET[111]: 1714
Assign SAMPLER_SET[112]: 1  LLC: 2048
SAMPLER_SET[112]: 1
Assign SAMPLER_SET[113]: 1822  LLC: 2048
SAMPLER_SET[113]: 1822
Assign SAMPLER_SET[114]: 172  LLC: 2048
SAMPLER_SET[114]: 172
Assign SAMPLER_SET[115]: 1586  LLC: 2048
SAMPLER_SET[115]: 1586
Assign SAMPLER_SET[116]: 648  LLC: 2048
SAMPLER_SET[116]: 648
Assign SAMPLER_SET[117]: 1329  LLC: 2048
SAMPLER_SET[117]: 1329
Assign SAMPLER_SET[118]: 668  LLC: 2048
SAMPLER_SET[118]: 668
Assign SAMPLER_SET[119]: 1874  LLC: 2048
SAMPLER_SET[119]: 1874
Assign SAMPLER_SET[120]: 70  LLC: 2048
SAMPLER_SET[120]: 70
Assign SAMPLER_SET[121]: 661  LLC: 2048
SAMPLER_SET[121]: 661
Assign SAMPLER_SET[122]: 1649  LLC: 2048
SAMPLER_SET[122]: 1649
Assign SAMPLER_SET[123]: 1590  LLC: 2048
SAMPLER_SET[123]: 1590
Assign SAMPLER_SET[124]: 911  LLC: 2048
SAMPLER_SET[124]: 911
Assign SAMPLER_SET[125]: 1367  LLC: 2048
SAMPLER_SET[125]: 1367
Assign SAMPLER_SET[126]: 1782  LLC: 2048
SAMPLER_SET[126]: 1782
Assign SAMPLER_SET[127]: 569  LLC: 2048
SAMPLER_SET[127]: 569
Assign SAMPLER_SET[128]: 1309  LLC: 2048
SAMPLER_SET[128]: 1309
Assign SAMPLER_SET[129]: 534  LLC: 2048
SAMPLER_SET[129]: 534
Assign SAMPLER_SET[130]: 1274  LLC: 2048
SAMPLER_SET[130]: 1274
Assign SAMPLER_SET[131]: 904  LLC: 2048
SAMPLER_SET[131]: 904
Assign SAMPLER_SET[132]: 1908  LLC: 2048
SAMPLER_SET[132]: 1908
Assign SAMPLER_SET[133]: 245  LLC: 2048
SAMPLER_SET[133]: 245
Assign SAMPLER_SET[134]: 1688  LLC: 2048
SAMPLER_SET[134]: 1688
Assign SAMPLER_SET[135]: 1660  LLC: 2048
SAMPLER_SET[135]: 1660
Assign SAMPLER_SET[136]: 1303  LLC: 2048
SAMPLER_SET[136]: 1303
Assign SAMPLER_SET[137]: 1628  LLC: 2048
SAMPLER_SET[137]: 1628
Assign SAMPLER_SET[138]: 1857  LLC: 2048
SAMPLER_SET[138]: 1857
Assign SAMPLER_SET[139]: 187  LLC: 2048
SAMPLER_SET[139]: 187
Assign SAMPLER_SET[140]: 1389  LLC: 2048
SAMPLER_SET[140]: 1389
Assign SAMPLER_SET[141]: 881  LLC: 2048
SAMPLER_SET[141]: 881
Assign SAMPLER_SET[142]: 1166  LLC: 2048
Assign SAMPLER_SET[142]: 1039  LLC: 2048
SAMPLER_SET[142]: 1039
Assign SAMPLER_SET[143]: 1136  LLC: 2048
SAMPLER_SET[143]: 1136
Assign SAMPLER_SET[144]: 601  LLC: 2048
SAMPLER_SET[144]: 601
Assign SAMPLER_SET[145]: 967  LLC: 2048
SAMPLER_SET[145]: 967
Assign SAMPLER_SET[146]: 769  LLC: 2048
SAMPLER_SET[146]: 769
Assign SAMPLER_SET[147]: 283  LLC: 2048
SAMPLER_SET[147]: 283
Assign SAMPLER_SET[148]: 559  LLC: 2048
SAMPLER_SET[148]: 559
Assign SAMPLER_SET[149]: 1075  LLC: 2048
SAMPLER_SET[149]: 1075
Assign SAMPLER_SET[150]: 829  LLC: 2048
SAMPLER_SET[150]: 829
Assign SAMPLER_SET[151]: 1681  LLC: 2048
SAMPLER_SET[151]: 1681
Assign SAMPLER_SET[152]: 1728  LLC: 2048
SAMPLER_SET[152]: 1728
Assign SAMPLER_SET[153]: 541  LLC: 2048
SAMPLER_SET[153]: 541
Assign SAMPLER_SET[154]: 421  LLC: 2048
SAMPLER_SET[154]: 421
Assign SAMPLER_SET[155]: 1037  LLC: 2048
SAMPLER_SET[155]: 1037
Assign SAMPLER_SET[156]: 13  LLC: 2048
SAMPLER_SET[156]: 13
Assign SAMPLER_SET[157]: 1707  LLC: 2048
SAMPLER_SET[157]: 1707
Assign SAMPLER_SET[158]: 1075  LLC: 2048
Assign SAMPLER_SET[158]: 1933  LLC: 2048
SAMPLER_SET[158]: 1933
Assign SAMPLER_SET[159]: 1406  LLC: 2048
SAMPLER_SET[159]: 1406
Assign SAMPLER_SET[160]: 94  LLC: 2048
SAMPLER_SET[160]: 94
Assign SAMPLER_SET[161]: 1423  LLC: 2048
SAMPLER_SET[161]: 1423
Assign SAMPLER_SET[162]: 1854  LLC: 2048
SAMPLER_SET[162]: 1854
Assign SAMPLER_SET[163]: 230  LLC: 2048
SAMPLER_SET[163]: 230
Assign SAMPLER_SET[164]: 104  LLC: 2048
SAMPLER_SET[164]: 104
Assign SAMPLER_SET[165]: 1652  LLC: 2048
SAMPLER_SET[165]: 1652
Assign SAMPLER_SET[166]: 1446  LLC: 2048
SAMPLER_SET[166]: 1446
Assign SAMPLER_SET[167]: 1338  LLC: 2048
SAMPLER_SET[167]: 1338
Assign SAMPLER_SET[168]: 177  LLC: 2048
SAMPLER_SET[168]: 177
Assign SAMPLER_SET[169]: 195  LLC: 2048
SAMPLER_SET[169]: 195
Assign SAMPLER_SET[170]: 1171  LLC: 2048
SAMPLER_SET[170]: 1171
Assign SAMPLER_SET[171]: 1297  LLC: 2048
SAMPLER_SET[171]: 1297
Assign SAMPLER_SET[172]: 1704  LLC: 2048
SAMPLER_SET[172]: 1704
Assign SAMPLER_SET[173]: 100  LLC: 2048
SAMPLER_SET[173]: 100
Assign SAMPLER_SET[174]: 711  LLC: 2048
SAMPLER_SET[174]: 711
Assign SAMPLER_SET[175]: 1243  LLC: 2048
SAMPLER_SET[175]: 1243
Assign SAMPLER_SET[176]: 1738  LLC: 2048
SAMPLER_SET[176]: 1738
Assign SAMPLER_SET[177]: 1504  LLC: 2048
SAMPLER_SET[177]: 1504
Assign SAMPLER_SET[178]: 96  LLC: 2048
SAMPLER_SET[178]: 96
Assign SAMPLER_SET[179]: 1249  LLC: 2048
SAMPLER_SET[179]: 1249
Assign SAMPLER_SET[180]: 1267  LLC: 2048
SAMPLER_SET[180]: 1267
Assign SAMPLER_SET[181]: 1727  LLC: 2048
SAMPLER_SET[181]: 1727
Assign SAMPLER_SET[182]: 1545  LLC: 2048
SAMPLER_SET[182]: 1545
Assign SAMPLER_SET[183]: 1792  LLC: 2048
SAMPLER_SET[183]: 1792
Assign SAMPLER_SET[184]: 1383  LLC: 2048
SAMPLER_SET[184]: 1383
Assign SAMPLER_SET[185]: 1954  LLC: 2048
SAMPLER_SET[185]: 1954
Assign SAMPLER_SET[186]: 739  LLC: 2048
SAMPLER_SET[186]: 739
Assign SAMPLER_SET[187]: 1061  LLC: 2048
SAMPLER_SET[187]: 1061
Assign SAMPLER_SET[188]: 672  LLC: 2048
SAMPLER_SET[188]: 672
Assign SAMPLER_SET[189]: 1057  LLC: 2048
SAMPLER_SET[189]: 1057
Assign SAMPLER_SET[190]: 1329  LLC: 2048
Assign SAMPLER_SET[190]: 1415  LLC: 2048
SAMPLER_SET[190]: 1415
Assign SAMPLER_SET[191]: 981  LLC: 2048
SAMPLER_SET[191]: 981
Assign SAMPLER_SET[192]: 98  LLC: 2048
SAMPLER_SET[192]: 98
Assign SAMPLER_SET[193]: 453  LLC: 2048
SAMPLER_SET[193]: 453
Assign SAMPLER_SET[194]: 1448  LLC: 2048
SAMPLER_SET[194]: 1448
Assign SAMPLER_SET[195]: 79  LLC: 2048
SAMPLER_SET[195]: 79
Assign SAMPLER_SET[196]: 126  LLC: 2048
SAMPLER_SET[196]: 126
Assign SAMPLER_SET[197]: 1582  LLC: 2048
SAMPLER_SET[197]: 1582
Assign SAMPLER_SET[198]: 1289  LLC: 2048
SAMPLER_SET[198]: 1289
Assign SAMPLER_SET[199]: 875  LLC: 2048
SAMPLER_SET[199]: 875
Assign SAMPLER_SET[200]: 404  LLC: 2048
SAMPLER_SET[200]: 404
Assign SAMPLER_SET[201]: 415  LLC: 2048
SAMPLER_SET[201]: 415
Assign SAMPLER_SET[202]: 1712  LLC: 2048
SAMPLER_SET[202]: 1712
Assign SAMPLER_SET[203]: 1389  LLC: 2048
Assign SAMPLER_SET[203]: 169  LLC: 2048
SAMPLER_SET[203]: 169
Assign SAMPLER_SET[204]: 158  LLC: 2048
SAMPLER_SET[204]: 158
Assign SAMPLER_SET[205]: 90  LLC: 2048
SAMPLER_SET[205]: 90
Assign SAMPLER_SET[206]: 1291  LLC: 2048
SAMPLER_SET[206]: 1291
Assign SAMPLER_SET[207]: 838  LLC: 2048
SAMPLER_SET[207]: 838
Assign SAMPLER_SET[208]: 1904  LLC: 2048
SAMPLER_SET[208]: 1904
Assign SAMPLER_SET[209]: 640  LLC: 2048
SAMPLER_SET[209]: 640
Assign SAMPLER_SET[210]: 1462  LLC: 2048
SAMPLER_SET[210]: 1462
Assign SAMPLER_SET[211]: 1487  LLC: 2048
SAMPLER_SET[211]: 1487
Assign SAMPLER_SET[212]: 1863  LLC: 2048
SAMPLER_SET[212]: 1863
Assign SAMPLER_SET[213]: 1036  LLC: 2048
SAMPLER_SET[213]: 1036
Assign SAMPLER_SET[214]: 1702  LLC: 2048
Assign SAMPLER_SET[214]: 933  LLC: 2048
SAMPLER_SET[214]: 933
Assign SAMPLER_SET[215]: 554  LLC: 2048
SAMPLER_SET[215]: 554
Assign SAMPLER_SET[216]: 1496  LLC: 2048
SAMPLER_SET[216]: 1496
Assign SAMPLER_SET[217]: 1708  LLC: 2048
SAMPLER_SET[217]: 1708
Assign SAMPLER_SET[218]: 1275  LLC: 2048
Assign SAMPLER_SET[218]: 416  LLC: 2048
SAMPLER_SET[218]: 416
Assign SAMPLER_SET[219]: 491  LLC: 2048
SAMPLER_SET[219]: 491
Assign SAMPLER_SET[220]: 183  LLC: 2048
SAMPLER_SET[220]: 183
Assign SAMPLER_SET[221]: 1657  LLC: 2048
SAMPLER_SET[221]: 1657
Assign SAMPLER_SET[222]: 1060  LLC: 2048
SAMPLER_SET[222]: 1060
Assign SAMPLER_SET[223]: 626  LLC: 2048
SAMPLER_SET[223]: 626
Assign SAMPLER_SET[224]: 1315  LLC: 2048
SAMPLER_SET[224]: 1315
Assign SAMPLER_SET[225]: 1682  LLC: 2048
SAMPLER_SET[225]: 1682
Assign SAMPLER_SET[226]: 1352  LLC: 2048
SAMPLER_SET[226]: 1352
Assign SAMPLER_SET[227]: 1152  LLC: 2048
SAMPLER_SET[227]: 1152
Assign SAMPLER_SET[228]: 965  LLC: 2048
SAMPLER_SET[228]: 965
Assign SAMPLER_SET[229]: 1190  LLC: 2048
SAMPLER_SET[229]: 1190
Assign SAMPLER_SET[230]: 1191  LLC: 2048
SAMPLER_SET[230]: 1191
Assign SAMPLER_SET[231]: 645  LLC: 2048
SAMPLER_SET[231]: 645
Assign SAMPLER_SET[232]: 695  LLC: 2048
SAMPLER_SET[232]: 695
Assign SAMPLER_SET[233]: 1495  LLC: 2048
SAMPLER_SET[233]: 1495
Assign SAMPLER_SET[234]: 1932  LLC: 2048
SAMPLER_SET[234]: 1932
Assign SAMPLER_SET[235]: 656  LLC: 2048
SAMPLER_SET[235]: 656
Assign SAMPLER_SET[236]: 1508  LLC: 2048
SAMPLER_SET[236]: 1508
Assign SAMPLER_SET[237]: 939  LLC: 2048
SAMPLER_SET[237]: 939
Assign SAMPLER_SET[238]: 355  LLC: 2048
SAMPLER_SET[238]: 355
Assign SAMPLER_SET[239]: 1092  LLC: 2048
SAMPLER_SET[239]: 1092
Assign SAMPLER_SET[240]: 850  LLC: 2048
SAMPLER_SET[240]: 850
Assign SAMPLER_SET[241]: 102  LLC: 2048
SAMPLER_SET[241]: 102
Assign SAMPLER_SET[242]: 1763  LLC: 2048
SAMPLER_SET[242]: 1763
Assign SAMPLER_SET[243]: 668  LLC: 2048
Assign SAMPLER_SET[243]: 51  LLC: 2048
SAMPLER_SET[243]: 51
Assign SAMPLER_SET[244]: 1317  LLC: 2048
SAMPLER_SET[244]: 1317
Assign SAMPLER_SET[245]: 2041  LLC: 2048
SAMPLER_SET[245]: 2041
Assign SAMPLER_SET[246]: 1374  LLC: 2048
SAMPLER_SET[246]: 1374
Assign SAMPLER_SET[247]: 682  LLC: 2048
SAMPLER_SET[247]: 682
Assign SAMPLER_SET[248]: 1466  LLC: 2048
SAMPLER_SET[248]: 1466
Assign SAMPLER_SET[249]: 1139  LLC: 2048
SAMPLER_SET[249]: 1139
Assign SAMPLER_SET[250]: 1632  LLC: 2048
SAMPLER_SET[250]: 1632
Assign SAMPLER_SET[251]: 1117  LLC: 2048
SAMPLER_SET[251]: 1117
Assign SAMPLER_SET[252]: 1611  LLC: 2048
SAMPLER_SET[252]: 1611
Assign SAMPLER_SET[253]: 1905  LLC: 2048
SAMPLER_SET[253]: 1905
Assign SAMPLER_SET[254]: 1662  LLC: 2048
Assign SAMPLER_SET[254]: 446  LLC: 2048
SAMPLER_SET[254]: 446
Assign SAMPLER_SET[255]: 1705  LLC: 2048
SAMPLER_SET[255]: 1705
Heartbeat CPU 0 instructions: 10000000 cycles: 4114048 heartbeat IPC: 2.4307 cumulative IPC: 2.4307 (Simulation time: 0 hr 0 min 24 sec) 
Heartbeat CPU 0 instructions: 20000000 cycles: 8235679 heartbeat IPC: 2.42622 cumulative IPC: 2.42846 (Simulation time: 0 hr 0 min 47 sec) 
Heartbeat CPU 0 instructions: 30000002 cycles: 12342913 heartbeat IPC: 2.43473 cumulative IPC: 2.43054 (Simulation time: 0 hr 1 min 11 sec) 
Heartbeat CPU 0 instructions: 40000000 cycles: 16454465 heartbeat IPC: 2.43217 cumulative IPC: 2.43095 (Simulation time: 0 hr 1 min 35 sec) 
Heartbeat CPU 0 instructions: 50000000 cycles: 20561081 heartbeat IPC: 2.4351 cumulative IPC: 2.43178 (Simulation time: 0 hr 1 min 59 sec) 
Heartbeat CPU 0 instructions: 60000003 cycles: 24668878 heartbeat IPC: 2.4344 cumulative IPC: 2.43221 (Simulation time: 0 hr 2 min 24 sec) 
Heartbeat CPU 0 instructions: 70000003 cycles: 28781586 heartbeat IPC: 2.43149 cumulative IPC: 2.43211 (Simulation time: 0 hr 2 min 48 sec) 
Heartbeat CPU 0 instructions: 80000000 cycles: 32893450 heartbeat IPC: 2.43199 cumulative IPC: 2.4321 (Simulation time: 0 hr 3 min 12 sec) 
Heartbeat CPU 0 instructions: 90000000 cycles: 37012522 heartbeat IPC: 2.42773 cumulative IPC: 2.43161 (Simulation time: 0 hr 3 min 36 sec) 
Heartbeat CPU 0 instructions: 100000000 cycles: 41104408 heartbeat IPC: 2.44386 cumulative IPC: 2.43283 (Simulation time: 0 hr 4 min 0 sec) 

Warmup complete CPU 0 instructions: 100000002 cycles: 41104409 (Simulation time: 0 hr 4 min 0 sec) 

Heartbeat CPU 0 instructions: 110000000 cycles: 69145070 heartbeat IPC: 0.356625 cumulative IPC: 0.356625 (Simulation time: 0 hr 4 min 21 sec) 
Heartbeat CPU 0 instructions: 120000000 cycles: 96798704 heartbeat IPC: 0.361616 cumulative IPC: 0.359103 (Simulation time: 0 hr 4 min 41 sec) 
Heartbeat CPU 0 instructions: 130000000 cycles: 124224816 heartbeat IPC: 0.364616 cumulative IPC: 0.360922 (Simulation time: 0 hr 5 min 1 sec) 
Heartbeat CPU 0 instructions: 140000002 cycles: 152718599 heartbeat IPC: 0.350954 cumulative IPC: 0.358377 (Simulation time: 0 hr 5 min 21 sec) 
Heartbeat CPU 0 instructions: 150000000 cycles: 181123380 heartbeat IPC: 0.352053 cumulative IPC: 0.357094 (Simulation time: 0 hr 5 min 41 sec) 
Heartbeat CPU 0 instructions: 160000000 cycles: 209456064 heartbeat IPC: 0.352949 cumulative IPC: 0.356397 (Simulation time: 0 hr 6 min 1 sec) 
Heartbeat CPU 0 instructions: 170000000 cycles: 238545517 heartbeat IPC: 0.343767 cumulative IPC: 0.354536 (Simulation time: 0 hr 6 min 22 sec) 
Heartbeat CPU 0 instructions: 180000001 cycles: 266319135 heartbeat IPC: 0.360054 cumulative IPC: 0.355217 (Simulation time: 0 hr 6 min 42 sec) 
Heartbeat CPU 0 instructions: 190000002 cycles: 294439714 heartbeat IPC: 0.355612 cumulative IPC: 0.35526 (Simulation time: 0 hr 7 min 2 sec) 
Heartbeat CPU 0 instructions: 200000000 cycles: 322509324 heartbeat IPC: 0.356257 cumulative IPC: 0.35536 (Simulation time: 0 hr 7 min 22 sec) 
Heartbeat CPU 0 instructions: 210000003 cycles: 350538536 heartbeat IPC: 0.356771 cumulative IPC: 0.355488 (Simulation time: 0 hr 7 min 42 sec) 
Heartbeat CPU 0 instructions: 220000000 cycles: 377974022 heartbeat IPC: 0.364491 cumulative IPC: 0.356221 (Simulation time: 0 hr 8 min 2 sec) 
Heartbeat CPU 0 instructions: 230000000 cycles: 406978626 heartbeat IPC: 0.344773 cumulative IPC: 0.355313 (Simulation time: 0 hr 8 min 23 sec) 
Heartbeat CPU 0 instructions: 240000000 cycles: 434233285 heartbeat IPC: 0.36691 cumulative IPC: 0.356117 (Simulation time: 0 hr 8 min 43 sec) 
Heartbeat CPU 0 instructions: 250000001 cycles: 462221176 heartbeat IPC: 0.357297 cumulative IPC: 0.356196 (Simulation time: 0 hr 9 min 3 sec) 
Heartbeat CPU 0 instructions: 260000002 cycles: 490194319 heartbeat IPC: 0.357486 cumulative IPC: 0.356276 (Simulation time: 0 hr 9 min 23 sec) 
Heartbeat CPU 0 instructions: 270000000 cycles: 518094438 heartbeat IPC: 0.358421 cumulative IPC: 0.356402 (Simulation time: 0 hr 9 min 43 sec) 
Heartbeat CPU 0 instructions: 280000001 cycles: 546042183 heartbeat IPC: 0.357811 cumulative IPC: 0.35648 (Simulation time: 0 hr 10 min 3 sec) 
Heartbeat CPU 0 instructions: 290000003 cycles: 573442522 heartbeat IPC: 0.364959 cumulative IPC: 0.356916 (Simulation time: 0 hr 10 min 23 sec) 
Heartbeat CPU 0 instructions: 300000000 cycles: 600971859 heartbeat IPC: 0.363249 cumulative IPC: 0.357227 (Simulation time: 0 hr 10 min 44 sec) 
Heartbeat CPU 0 instructions: 310000000 cycles: 627027189 heartbeat IPC: 0.383799 cumulative IPC: 0.358409 (Simulation time: 0 hr 11 min 4 sec) 
Heartbeat CPU 0 instructions: 320000001 cycles: 654502636 heartbeat IPC: 0.363961 cumulative IPC: 0.358658 (Simulation time: 0 hr 11 min 24 sec) 
Heartbeat CPU 0 instructions: 330000000 cycles: 681445836 heartbeat IPC: 0.371151 cumulative IPC: 0.359183 (Simulation time: 0 hr 11 min 44 sec) 
Heartbeat CPU 0 instructions: 340000003 cycles: 708251648 heartbeat IPC: 0.373054 cumulative IPC: 0.359741 (Simulation time: 0 hr 12 min 4 sec) 
Heartbeat CPU 0 instructions: 350000003 cycles: 735181590 heartbeat IPC: 0.371334 cumulative IPC: 0.36019 (Simulation time: 0 hr 12 min 24 sec) 
Heartbeat CPU 0 instructions: 360000003 cycles: 761758617 heartbeat IPC: 0.376265 cumulative IPC: 0.360783 (Simulation time: 0 hr 12 min 44 sec) 
Heartbeat CPU 0 instructions: 370000002 cycles: 788454688 heartbeat IPC: 0.374587 cumulative IPC: 0.361276 (Simulation time: 0 hr 13 min 4 sec) 
Heartbeat CPU 0 instructions: 380000001 cycles: 815134931 heartbeat IPC: 0.374809 cumulative IPC: 0.361743 (Simulation time: 0 hr 13 min 24 sec) 
Heartbeat CPU 0 instructions: 390000000 cycles: 842098914 heartbeat IPC: 0.370865 cumulative IPC: 0.36205 (Simulation time: 0 hr 13 min 44 sec) 
Heartbeat CPU 0 instructions: 400000001 cycles: 868790465 heartbeat IPC: 0.37465 cumulative IPC: 0.362456 (Simulation time: 0 hr 14 min 4 sec) 
Heartbeat CPU 0 instructions: 410000000 cycles: 895611449 heartbeat IPC: 0.372842 cumulative IPC: 0.362782 (Simulation time: 0 hr 14 min 25 sec) 
Heartbeat CPU 0 instructions: 420000003 cycles: 922423595 heartbeat IPC: 0.372965 cumulative IPC: 0.363092 (Simulation time: 0 hr 14 min 45 sec) 
Heartbeat CPU 0 instructions: 430000000 cycles: 949375982 heartbeat IPC: 0.371025 cumulative IPC: 0.363327 (Simulation time: 0 hr 15 min 5 sec) 
Heartbeat CPU 0 instructions: 440000000 cycles: 976381143 heartbeat IPC: 0.3703 cumulative IPC: 0.363529 (Simulation time: 0 hr 15 min 25 sec) 
Heartbeat CPU 0 instructions: 450000002 cycles: 1003649087 heartbeat IPC: 0.366731 cumulative IPC: 0.363619 (Simulation time: 0 hr 15 min 45 sec) 
Heartbeat CPU 0 instructions: 460000001 cycles: 1031084426 heartbeat IPC: 0.364493 cumulative IPC: 0.363644 (Simulation time: 0 hr 16 min 5 sec) 
Heartbeat CPU 0 instructions: 470000003 cycles: 1059074455 heartbeat IPC: 0.35727 cumulative IPC: 0.363468 (Simulation time: 0 hr 16 min 26 sec) 
Heartbeat CPU 0 instructions: 480000000 cycles: 1086496950 heartbeat IPC: 0.364664 cumulative IPC: 0.3635 (Simulation time: 0 hr 16 min 46 sec) 
Heartbeat CPU 0 instructions: 490000003 cycles: 1113934630 heartbeat IPC: 0.364462 cumulative IPC: 0.363524 (Simulation time: 0 hr 17 min 6 sec) 
Heartbeat CPU 0 instructions: 500000000 cycles: 1142104938 heartbeat IPC: 0.354984 cumulative IPC: 0.363306 (Simulation time: 0 hr 17 min 26 sec) 
Heartbeat CPU 0 instructions: 510000001 cycles: 1169709491 heartbeat IPC: 0.362259 cumulative IPC: 0.36328 (Simulation time: 0 hr 17 min 46 sec) 
Heartbeat CPU 0 instructions: 520000000 cycles: 1197576259 heartbeat IPC: 0.35885 cumulative IPC: 0.363174 (Simulation time: 0 hr 18 min 6 sec) 
Heartbeat CPU 0 instructions: 530000003 cycles: 1225995558 heartbeat IPC: 0.351874 cumulative IPC: 0.362903 (Simulation time: 0 hr 18 min 27 sec) 
Heartbeat CPU 0 instructions: 540000001 cycles: 1253486184 heartbeat IPC: 0.36376 cumulative IPC: 0.362922 (Simulation time: 0 hr 18 min 47 sec) 
Heartbeat CPU 0 instructions: 550000000 cycles: 1281570718 heartbeat IPC: 0.356068 cumulative IPC: 0.362767 (Simulation time: 0 hr 19 min 7 sec) 
Heartbeat CPU 0 instructions: 560000000 cycles: 1309945133 heartbeat IPC: 0.35243 cumulative IPC: 0.362536 (Simulation time: 0 hr 19 min 27 sec) 
Heartbeat CPU 0 instructions: 570000000 cycles: 1345803717 heartbeat IPC: 0.278873 cumulative IPC: 0.360236 (Simulation time: 0 hr 19 min 49 sec) 
Heartbeat CPU 0 instructions: 580000001 cycles: 1374507697 heartbeat IPC: 0.348384 cumulative IPC: 0.359981 (Simulation time: 0 hr 20 min 9 sec) 
Heartbeat CPU 0 instructions: 590000000 cycles: 1403247439 heartbeat IPC: 0.34795 cumulative IPC: 0.359727 (Simulation time: 0 hr 20 min 30 sec) 
Heartbeat CPU 0 instructions: 600000000 cycles: 1432050046 heartbeat IPC: 0.347191 cumulative IPC: 0.359468 (Simulation time: 0 hr 20 min 50 sec) 
Heartbeat CPU 0 instructions: 610000001 cycles: 1461081996 heartbeat IPC: 0.344448 cumulative IPC: 0.359161 (Simulation time: 0 hr 21 min 11 sec) 
Heartbeat CPU 0 instructions: 620000001 cycles: 1489087884 heartbeat IPC: 0.357068 cumulative IPC: 0.35912 (Simulation time: 0 hr 21 min 31 sec) 
Heartbeat CPU 0 instructions: 630000001 cycles: 1517621093 heartbeat IPC: 0.350469 cumulative IPC: 0.358953 (Simulation time: 0 hr 21 min 52 sec) 
Heartbeat CPU 0 instructions: 640000002 cycles: 1546801892 heartbeat IPC: 0.342691 cumulative IPC: 0.358638 (Simulation time: 0 hr 22 min 12 sec) 
Heartbeat CPU 0 instructions: 650000000 cycles: 1575171361 heartbeat IPC: 0.352492 cumulative IPC: 0.358524 (Simulation time: 0 hr 22 min 33 sec) 
Heartbeat CPU 0 instructions: 660000000 cycles: 1603322736 heartbeat IPC: 0.355222 cumulative IPC: 0.358465 (Simulation time: 0 hr 22 min 53 sec) 
Heartbeat CPU 0 instructions: 670000000 cycles: 1631631614 heartbeat IPC: 0.353246 cumulative IPC: 0.358372 (Simulation time: 0 hr 23 min 14 sec) 
Heartbeat CPU 0 instructions: 680000000 cycles: 1660087496 heartbeat IPC: 0.351421 cumulative IPC: 0.35825 (Simulation time: 0 hr 23 min 34 sec) 
Heartbeat CPU 0 instructions: 690000002 cycles: 1687998860 heartbeat IPC: 0.358277 cumulative IPC: 0.35825 (Simulation time: 0 hr 23 min 54 sec) 
Heartbeat CPU 0 instructions: 700000000 cycles: 1716328794 heartbeat IPC: 0.352983 cumulative IPC: 0.358161 (Simulation time: 0 hr 24 min 15 sec) 
Heartbeat CPU 0 instructions: 710000000 cycles: 1744846736 heartbeat IPC: 0.350656 cumulative IPC: 0.358035 (Simulation time: 0 hr 24 min 35 sec) 
Heartbeat CPU 0 instructions: 720000000 cycles: 1773349524 heartbeat IPC: 0.350843 cumulative IPC: 0.357917 (Simulation time: 0 hr 24 min 56 sec) 
Heartbeat CPU 0 instructions: 730000000 cycles: 1801981857 heartbeat IPC: 0.349256 cumulative IPC: 0.357776 (Simulation time: 0 hr 25 min 16 sec) 
Heartbeat CPU 0 instructions: 740000002 cycles: 1830185177 heartbeat IPC: 0.354568 cumulative IPC: 0.357726 (Simulation time: 0 hr 25 min 37 sec) 
Heartbeat CPU 0 instructions: 750000001 cycles: 1858178326 heartbeat IPC: 0.35723 cumulative IPC: 0.357718 (Simulation time: 0 hr 25 min 57 sec) 
Heartbeat CPU 0 instructions: 760000002 cycles: 1887103055 heartbeat IPC: 0.345725 cumulative IPC: 0.35753 (Simulation time: 0 hr 26 min 18 sec) 
Heartbeat CPU 0 instructions: 770000000 cycles: 1915852544 heartbeat IPC: 0.347832 cumulative IPC: 0.357381 (Simulation time: 0 hr 26 min 38 sec) 
Heartbeat CPU 0 instructions: 780000002 cycles: 1944479809 heartbeat IPC: 0.349317 cumulative IPC: 0.35726 (Simulation time: 0 hr 26 min 59 sec) 
Heartbeat CPU 0 instructions: 790000001 cycles: 1972933368 heartbeat IPC: 0.35145 cumulative IPC: 0.357174 (Simulation time: 0 hr 27 min 19 sec) 
Heartbeat CPU 0 instructions: 800000000 cycles: 2002807735 heartbeat IPC: 0.334735 cumulative IPC: 0.356833 (Simulation time: 0 hr 27 min 40 sec) 
Heartbeat CPU 0 instructions: 810000003 cycles: 2031920646 heartbeat IPC: 0.34349 cumulative IPC: 0.356638 (Simulation time: 0 hr 28 min 1 sec) 
Heartbeat CPU 0 instructions: 820000002 cycles: 2061247582 heartbeat IPC: 0.340983 cumulative IPC: 0.35641 (Simulation time: 0 hr 28 min 23 sec) 
Heartbeat CPU 0 instructions: 830000000 cycles: 2090844560 heartbeat IPC: 0.337872 cumulative IPC: 0.356143 (Simulation time: 0 hr 28 min 44 sec) 
Heartbeat CPU 0 instructions: 840000001 cycles: 2119987978 heartbeat IPC: 0.343131 cumulative IPC: 0.35596 (Simulation time: 0 hr 29 min 5 sec) 
Heartbeat CPU 0 instructions: 850000001 cycles: 2150870325 heartbeat IPC: 0.32381 cumulative IPC: 0.35549 (Simulation time: 0 hr 29 min 27 sec) 
Heartbeat CPU 0 instructions: 860000002 cycles: 2180281909 heartbeat IPC: 0.340002 cumulative IPC: 0.355277 (Simulation time: 0 hr 29 min 49 sec) 
Heartbeat CPU 0 instructions: 870000001 cycles: 2209867715 heartbeat IPC: 0.338 cumulative IPC: 0.355041 (Simulation time: 0 hr 30 min 11 sec) 
Heartbeat CPU 0 instructions: 880000000 cycles: 2239411014 heartbeat IPC: 0.338486 cumulative IPC: 0.354819 (Simulation time: 0 hr 30 min 32 sec) 
Heartbeat CPU 0 instructions: 890000000 cycles: 2269145847 heartbeat IPC: 0.336306 cumulative IPC: 0.354571 (Simulation time: 0 hr 30 min 54 sec) 
Heartbeat CPU 0 instructions: 900000000 cycles: 2298749217 heartbeat IPC: 0.337799 cumulative IPC: 0.354352 (Simulation time: 0 hr 31 min 16 sec) 
Heartbeat CPU 0 instructions: 910000003 cycles: 2327555837 heartbeat IPC: 0.347143 cumulative IPC: 0.354261 (Simulation time: 0 hr 31 min 38 sec) 
Heartbeat CPU 0 instructions: 920000001 cycles: 2357142935 heartbeat IPC: 0.337985 cumulative IPC: 0.354053 (Simulation time: 0 hr 32 min 0 sec) 
Heartbeat CPU 0 instructions: 930000003 cycles: 2386903488 heartbeat IPC: 0.336015 cumulative IPC: 0.353824 (Simulation time: 0 hr 32 min 22 sec) 
Heartbeat CPU 0 instructions: 940000000 cycles: 2417054814 heartbeat IPC: 0.33166 cumulative IPC: 0.353543 (Simulation time: 0 hr 32 min 44 sec) 
Heartbeat CPU 0 instructions: 950000003 cycles: 2446498127 heartbeat IPC: 0.339636 cumulative IPC: 0.353373 (Simulation time: 0 hr 33 min 6 sec) 
Heartbeat CPU 0 instructions: 960000001 cycles: 2476269005 heartbeat IPC: 0.335899 cumulative IPC: 0.353159 (Simulation time: 0 hr 33 min 28 sec) 
Heartbeat CPU 0 instructions: 970000002 cycles: 2506494295 heartbeat IPC: 0.330849 cumulative IPC: 0.352885 (Simulation time: 0 hr 33 min 50 sec) 
Heartbeat CPU 0 instructions: 980000003 cycles: 2536533737 heartbeat IPC: 0.332896 cumulative IPC: 0.352645 (Simulation time: 0 hr 34 min 12 sec) 
Heartbeat CPU 0 instructions: 990000000 cycles: 2566195523 heartbeat IPC: 0.337134 cumulative IPC: 0.352463 (Simulation time: 0 hr 34 min 33 sec) 
Heartbeat CPU 0 instructions: 1000000002 cycles: 2595667576 heartbeat IPC: 0.339305 cumulative IPC: 0.352311 (Simulation time: 0 hr 34 min 55 sec) 
Heartbeat CPU 0 instructions: 1010000002 cycles: 2624919342 heartbeat IPC: 0.34186 cumulative IPC: 0.352192 (Simulation time: 0 hr 35 min 17 sec) 
Heartbeat CPU 0 instructions: 1020000002 cycles: 2654899538 heartbeat IPC: 0.333554 cumulative IPC: 0.351979 (Simulation time: 0 hr 35 min 39 sec) 
Heartbeat CPU 0 instructions: 1030000003 cycles: 2684530014 heartbeat IPC: 0.33749 cumulative IPC: 0.351816 (Simulation time: 0 hr 36 min 0 sec) 
Heartbeat CPU 0 instructions: 1040000001 cycles: 2714155397 heartbeat IPC: 0.337548 cumulative IPC: 0.351658 (Simulation time: 0 hr 36 min 22 sec) 
Heartbeat CPU 0 instructions: 1050000001 cycles: 2743430925 heartbeat IPC: 0.341582 cumulative IPC: 0.351549 (Simulation time: 0 hr 36 min 43 sec) 
Heartbeat CPU 0 instructions: 1060000000 cycles: 2772898655 heartbeat IPC: 0.339354 cumulative IPC: 0.351417 (Simulation time: 0 hr 37 min 5 sec) 
Heartbeat CPU 0 instructions: 1070000003 cycles: 2802142584 heartbeat IPC: 0.341951 cumulative IPC: 0.351317 (Simulation time: 0 hr 37 min 26 sec) 
Heartbeat CPU 0 instructions: 1080000000 cycles: 2831355599 heartbeat IPC: 0.342313 cumulative IPC: 0.351223 (Simulation time: 0 hr 37 min 47 sec) 
Heartbeat CPU 0 instructions: 1090000002 cycles: 2861180133 heartbeat IPC: 0.335294 cumulative IPC: 0.351054 (Simulation time: 0 hr 38 min 9 sec) 
Heartbeat CPU 0 instructions: 1100000000 cycles: 2890105897 heartbeat IPC: 0.345712 cumulative IPC: 0.351 (Simulation time: 0 hr 38 min 30 sec) 
Finished CPU 0 instructions: 1000000000 cycles: 2849001489 cumulative IPC: 0.351 (Simulation time: 0 hr 38 min 30 sec) 

ChampSim completed all CPUs

Region of Interest Statistics

CPU 0 cumulative IPC: 0.351 instructions: 1000000000 cycles: 2849001489
L1D TOTAL     ACCESS:  372169879  HIT:  329053602  MISS:   43116277
L1D LOAD      ACCESS:  263301479  HIT:  224081223  MISS:   39220256
L1D RFO       ACCESS:  108868400  HIT:  104972379  MISS:    3896021
L1D PREFETCH  ACCESS:          0  HIT:          0  MISS:          0
L1D WRITEBACK ACCESS:          0  HIT:          0  MISS:          0
L1D PREFETCH  REQUESTED:          0  ISSUED:          0  USEFUL:          0  USELESS:          0
L1D AVERAGE MISS LATENCY: 76.8258 cycles
L1I TOTAL     ACCESS:  194966338  HIT:  194966336  MISS:          2
L1I LOAD      ACCESS:  194966338  HIT:  194966336  MISS:          2
L1I RFO       ACCESS:          0  HIT:          0  MISS:          0
L1I PREFETCH  ACCESS:          0  HIT:          0  MISS:          0
L1I WRITEBACK ACCESS:          0  HIT:          0  MISS:          0
L1I PREFETCH  REQUESTED:          0  ISSUED:          0  USEFUL:          0  USELESS:          0
L1I AVERAGE MISS LATENCY: 235 cycles
L2C TOTAL     ACCESS:   49085940  HIT:   18145808  MISS:   30940132
L2C LOAD      ACCESS:   39220145  HIT:   11158467  MISS:   28061678
L2C RFO       ACCESS:    3895956  HIT:    1023637  MISS:    2872319
L2C PREFETCH  ACCESS:          0  HIT:          0  MISS:          0
L2C WRITEBACK ACCESS:    5969839  HIT:    5963704  MISS:       6135
L2C PREFETCH  REQUESTED:          0  ISSUED:          0  USEFUL:          0  USELESS:          0
L2C AVERAGE MISS LATENCY: 89.9901 cycles
LLC TOTAL     ACCESS:   35194345  HIT:   23134584  MISS:   12059761
LLC LOAD      ACCESS:   28061561  HIT:   16060739  MISS:   12000822
LLC RFO       ACCESS:    2872195  HIT:    2862842  MISS:       9353
LLC PREFETCH  ACCESS:          0  HIT:          0  MISS:          0
LLC WRITEBACK ACCESS:    4260589  HIT:    4211003  MISS:      49586
LLC PREFETCH  REQUESTED:          0  ISSUED:          0  USEFUL:          0  USELESS:          0
LLC AVERAGE MISS LATENCY: 126.753 cycles
Major fault: 0 Minor fault: 151086
==============================
Perceptron RRIP Stats:
   Num Updates:          4252265
   Num Primary Trains:   153501
   Num Secondary Trains: 150424
==============================
primary_perceptron #0: -3 1 3 1 1 1 1 5 -1 1 -1 3 -1 -3 1 -19 
secondary_perceptron #0: -2 -4 4 0 4 -2 0 4 -2 -2 0 4 0 -6 0 2 -2 2 -6 0 -20 


DRAM Statistics
 CHANNEL 0
 RQ ROW_BUFFER_HIT:    7098251  ROW_BUFFER_MISS:    4911919
 DBUS_CONGESTED:    1907885
 WQ ROW_BUFFER_HIT:      37283  ROW_BUFFER_MISS:      69040  FULL:          0

 AVG_CONGESTED_CYCLE: 5

CPU 0 Branch Prediction Accuracy: 88.8495% MPKI: 28.0155 Average ROB Occupancy at Mispredict: 14.866

Branch types
NOT_BRANCH: 748751390 74.8751%
BRANCH_DIRECT_JUMP: 26840018 2.684%
BRANCH_INDIRECT: 0 0%
BRANCH_CONDITIONAL: 170587008 17.0587%
BRANCH_DIRECT_CALL: 25420991 2.5421%
BRANCH_INDIRECT_CALL: 1489642 0.148964%
BRANCH_RETURN: 26910634 2.69106%
BRANCH_OTHER: 0 0%

