
*** ChampSim Multicore Out-of-Order Simulator ***

Warmup Instructions: 100000000
Simulation Instructions: 1000000000
Number of CPUs: 1
LLC sets: 2048
LLC ways: 16
Off-chip DRAM Size: 4096 MB Channels: 1 Width: 64-bit Data Rate: 3200 MT/s

CPU 0 runs /scratch/user/kevin.weston/dpc3-traces/607.champsimtrace.xz
CPU 0 Bimodal branch predictor
Initialize DRRIP state
Assign rand_sets[0]: 454  LLC: 2048
rand_sets[0]: 454
Assign rand_sets[1]: 1662  LLC: 2048
rand_sets[1]: 1662
Assign rand_sets[2]: 1921  LLC: 2048
rand_sets[2]: 1921
Assign rand_sets[3]: 1131  LLC: 2048
rand_sets[3]: 1131
Assign rand_sets[4]: 331  LLC: 2048
rand_sets[4]: 331
Assign rand_sets[5]: 1531  LLC: 2048
rand_sets[5]: 1531
Assign rand_sets[6]: 482  LLC: 2048
rand_sets[6]: 482
Assign rand_sets[7]: 1275  LLC: 2048
rand_sets[7]: 1275
Assign rand_sets[8]: 1876  LLC: 2048
rand_sets[8]: 1876
Assign rand_sets[9]: 2038  LLC: 2048
rand_sets[9]: 2038
Assign rand_sets[10]: 701  LLC: 2048
rand_sets[10]: 701
Assign rand_sets[11]: 479  LLC: 2048
rand_sets[11]: 479
Assign rand_sets[12]: 892  LLC: 2048
rand_sets[12]: 892
Assign rand_sets[13]: 1820  LLC: 2048
rand_sets[13]: 1820
Assign rand_sets[14]: 1505  LLC: 2048
rand_sets[14]: 1505
Assign rand_sets[15]: 1159  LLC: 2048
rand_sets[15]: 1159
Assign rand_sets[16]: 513  LLC: 2048
rand_sets[16]: 513
Assign rand_sets[17]: 703  LLC: 2048
rand_sets[17]: 703
Assign rand_sets[18]: 561  LLC: 2048
rand_sets[18]: 561
Assign rand_sets[19]: 990  LLC: 2048
rand_sets[19]: 990
Assign rand_sets[20]: 342  LLC: 2048
rand_sets[20]: 342
Assign rand_sets[21]: 882  LLC: 2048
rand_sets[21]: 882
Assign rand_sets[22]: 15  LLC: 2048
rand_sets[22]: 15
Assign rand_sets[23]: 71  LLC: 2048
rand_sets[23]: 71
Assign rand_sets[24]: 1127  LLC: 2048
rand_sets[24]: 1127
Assign rand_sets[25]: 1382  LLC: 2048
rand_sets[25]: 1382
Assign rand_sets[26]: 647  LLC: 2048
rand_sets[26]: 647
Assign rand_sets[27]: 857  LLC: 2048
rand_sets[27]: 857
Assign rand_sets[28]: 1450  LLC: 2048
rand_sets[28]: 1450
Assign rand_sets[29]: 1160  LLC: 2048
rand_sets[29]: 1160
Assign rand_sets[30]: 1852  LLC: 2048
rand_sets[30]: 1852
Assign rand_sets[31]: 1881  LLC: 2048
rand_sets[31]: 1881
Assign rand_sets[32]: 1770  LLC: 2048
rand_sets[32]: 1770
Assign rand_sets[33]: 1622  LLC: 2048
rand_sets[33]: 1622
Assign rand_sets[34]: 275  LLC: 2048
rand_sets[34]: 275
Assign rand_sets[35]: 635  LLC: 2048
rand_sets[35]: 635
Assign rand_sets[36]: 466  LLC: 2048
rand_sets[36]: 466
Assign rand_sets[37]: 1413  LLC: 2048
rand_sets[37]: 1413
Assign rand_sets[38]: 417  LLC: 2048
rand_sets[38]: 417
Assign rand_sets[39]: 472  LLC: 2048
rand_sets[39]: 472
Assign rand_sets[40]: 1340  LLC: 2048
rand_sets[40]: 1340
Assign rand_sets[41]: 852  LLC: 2048
rand_sets[41]: 852
Assign rand_sets[42]: 1365  LLC: 2048
rand_sets[42]: 1365
Assign rand_sets[43]: 47  LLC: 2048
rand_sets[43]: 47
Assign rand_sets[44]: 823  LLC: 2048
rand_sets[44]: 823
Assign rand_sets[45]: 686  LLC: 2048
rand_sets[45]: 686
Assign rand_sets[46]: 1637  LLC: 2048
rand_sets[46]: 1637
Assign rand_sets[47]: 1115  LLC: 2048
rand_sets[47]: 1115
Assign rand_sets[48]: 986  LLC: 2048
rand_sets[48]: 986
Assign rand_sets[49]: 258  LLC: 2048
rand_sets[49]: 258
Assign rand_sets[50]: 633  LLC: 2048
rand_sets[50]: 633
Assign rand_sets[51]: 920  LLC: 2048
rand_sets[51]: 920
Assign rand_sets[52]: 204  LLC: 2048
rand_sets[52]: 204
Assign rand_sets[53]: 227  LLC: 2048
rand_sets[53]: 227
Assign rand_sets[54]: 1818  LLC: 2048
rand_sets[54]: 1818
Assign rand_sets[55]: 886  LLC: 2048
rand_sets[55]: 886
Assign rand_sets[56]: 1422  LLC: 2048
rand_sets[56]: 1422
Assign rand_sets[57]: 607  LLC: 2048
rand_sets[57]: 607
Assign rand_sets[58]: 217  LLC: 2048
rand_sets[58]: 217
Assign rand_sets[59]: 1945  LLC: 2048
rand_sets[59]: 1945
Assign rand_sets[60]: 143  LLC: 2048
rand_sets[60]: 143
Assign rand_sets[61]: 1311  LLC: 2048
rand_sets[61]: 1311
Assign rand_sets[62]: 319  LLC: 2048
rand_sets[62]: 319
Assign rand_sets[63]: 1846  LLC: 2048
rand_sets[63]: 1846
Heartbeat CPU 0 instructions: 10000002 cycles: 4836464 heartbeat IPC: 2.06763 cumulative IPC: 2.06763 (Simulation time: 0 hr 0 min 28 sec) 
Heartbeat CPU 0 instructions: 20000001 cycles: 9669418 heartbeat IPC: 2.06913 cumulative IPC: 2.06838 (Simulation time: 0 hr 0 min 56 sec) 
Heartbeat CPU 0 instructions: 30000002 cycles: 14504173 heartbeat IPC: 2.06836 cumulative IPC: 2.06837 (Simulation time: 0 hr 1 min 24 sec) 
Heartbeat CPU 0 instructions: 40000003 cycles: 19338828 heartbeat IPC: 2.0684 cumulative IPC: 2.06838 (Simulation time: 0 hr 1 min 52 sec) 
Heartbeat CPU 0 instructions: 50000000 cycles: 24174545 heartbeat IPC: 2.06795 cumulative IPC: 2.06829 (Simulation time: 0 hr 2 min 20 sec) 
Heartbeat CPU 0 instructions: 60000000 cycles: 28026526 heartbeat IPC: 2.59607 cumulative IPC: 2.14083 (Simulation time: 0 hr 2 min 45 sec) 
Heartbeat CPU 0 instructions: 70000001 cycles: 31640162 heartbeat IPC: 2.7673 cumulative IPC: 2.21238 (Simulation time: 0 hr 3 min 8 sec) 
Heartbeat CPU 0 instructions: 80000003 cycles: 35251521 heartbeat IPC: 2.76904 cumulative IPC: 2.26941 (Simulation time: 0 hr 3 min 32 sec) 
Heartbeat CPU 0 instructions: 90000001 cycles: 38863680 heartbeat IPC: 2.76843 cumulative IPC: 2.31579 (Simulation time: 0 hr 3 min 56 sec) 
Heartbeat CPU 0 instructions: 100000001 cycles: 42476544 heartbeat IPC: 2.76789 cumulative IPC: 2.35424 (Simulation time: 0 hr 4 min 20 sec) 

Warmup complete CPU 0 instructions: 100000001 cycles: 42476544 (Simulation time: 0 hr 4 min 20 sec) 

Heartbeat CPU 0 instructions: 110000000 cycles: 52161255 heartbeat IPC: 1.03256 cumulative IPC: 1.03256 (Simulation time: 0 hr 4 min 48 sec) 
Heartbeat CPU 0 instructions: 120000000 cycles: 61778905 heartbeat IPC: 1.03975 cumulative IPC: 1.03614 (Simulation time: 0 hr 5 min 16 sec) 
Heartbeat CPU 0 instructions: 130000002 cycles: 71521442 heartbeat IPC: 1.02643 cumulative IPC: 1.03288 (Simulation time: 0 hr 5 min 44 sec) 
Heartbeat CPU 0 instructions: 140000002 cycles: 81185059 heartbeat IPC: 1.03481 cumulative IPC: 1.03336 (Simulation time: 0 hr 6 min 12 sec) 
Heartbeat CPU 0 instructions: 150000003 cycles: 90998221 heartbeat IPC: 1.01904 cumulative IPC: 1.03047 (Simulation time: 0 hr 6 min 41 sec) 
Heartbeat CPU 0 instructions: 160000002 cycles: 100651815 heartbeat IPC: 1.03588 cumulative IPC: 1.03137 (Simulation time: 0 hr 7 min 9 sec) 
Heartbeat CPU 0 instructions: 170000002 cycles: 110289333 heartbeat IPC: 1.03761 cumulative IPC: 1.03225 (Simulation time: 0 hr 7 min 37 sec) 
Heartbeat CPU 0 instructions: 180000001 cycles: 119859181 heartbeat IPC: 1.04495 cumulative IPC: 1.03382 (Simulation time: 0 hr 8 min 5 sec) 
Heartbeat CPU 0 instructions: 190000000 cycles: 129563934 heartbeat IPC: 1.03042 cumulative IPC: 1.03344 (Simulation time: 0 hr 8 min 33 sec) 
Heartbeat CPU 0 instructions: 200000003 cycles: 139289750 heartbeat IPC: 1.02819 cumulative IPC: 1.03292 (Simulation time: 0 hr 9 min 1 sec) 
Heartbeat CPU 0 instructions: 210000003 cycles: 148889439 heartbeat IPC: 1.0417 cumulative IPC: 1.03371 (Simulation time: 0 hr 9 min 29 sec) 
Heartbeat CPU 0 instructions: 220000000 cycles: 158617904 heartbeat IPC: 1.02791 cumulative IPC: 1.03322 (Simulation time: 0 hr 9 min 58 sec) 
Heartbeat CPU 0 instructions: 230000003 cycles: 168276799 heartbeat IPC: 1.03532 cumulative IPC: 1.03338 (Simulation time: 0 hr 10 min 26 sec) 
Heartbeat CPU 0 instructions: 240000000 cycles: 178043882 heartbeat IPC: 1.02385 cumulative IPC: 1.0327 (Simulation time: 0 hr 10 min 54 sec) 
Heartbeat CPU 0 instructions: 250000002 cycles: 187682325 heartbeat IPC: 1.03751 cumulative IPC: 1.03302 (Simulation time: 0 hr 11 min 22 sec) 
Heartbeat CPU 0 instructions: 260000001 cycles: 197342011 heartbeat IPC: 1.03523 cumulative IPC: 1.03315 (Simulation time: 0 hr 11 min 50 sec) 
Heartbeat CPU 0 instructions: 270000000 cycles: 206953928 heartbeat IPC: 1.04038 cumulative IPC: 1.03358 (Simulation time: 0 hr 12 min 18 sec) 
Heartbeat CPU 0 instructions: 280000000 cycles: 216661623 heartbeat IPC: 1.03011 cumulative IPC: 1.03338 (Simulation time: 0 hr 12 min 47 sec) 
Heartbeat CPU 0 instructions: 290000000 cycles: 226378281 heartbeat IPC: 1.02916 cumulative IPC: 1.03316 (Simulation time: 0 hr 13 min 15 sec) 
Heartbeat CPU 0 instructions: 300000001 cycles: 236026508 heartbeat IPC: 1.03646 cumulative IPC: 1.03332 (Simulation time: 0 hr 13 min 43 sec) 
Heartbeat CPU 0 instructions: 310000000 cycles: 245701099 heartbeat IPC: 1.03364 cumulative IPC: 1.03334 (Simulation time: 0 hr 14 min 11 sec) 
Heartbeat CPU 0 instructions: 320000002 cycles: 255412381 heartbeat IPC: 1.02973 cumulative IPC: 1.03318 (Simulation time: 0 hr 14 min 39 sec) 
Heartbeat CPU 0 instructions: 330000000 cycles: 265105835 heartbeat IPC: 1.03162 cumulative IPC: 1.03311 (Simulation time: 0 hr 15 min 8 sec) 
Heartbeat CPU 0 instructions: 340000003 cycles: 274869446 heartbeat IPC: 1.02421 cumulative IPC: 1.03273 (Simulation time: 0 hr 15 min 36 sec) 
Heartbeat CPU 0 instructions: 350000000 cycles: 284577316 heartbeat IPC: 1.03009 cumulative IPC: 1.03263 (Simulation time: 0 hr 16 min 4 sec) 
Heartbeat CPU 0 instructions: 360000003 cycles: 294211993 heartbeat IPC: 1.03792 cumulative IPC: 1.03283 (Simulation time: 0 hr 16 min 32 sec) 
Heartbeat CPU 0 instructions: 370000003 cycles: 303929883 heartbeat IPC: 1.02903 cumulative IPC: 1.03269 (Simulation time: 0 hr 17 min 1 sec) 
Heartbeat CPU 0 instructions: 380000001 cycles: 313611813 heartbeat IPC: 1.03285 cumulative IPC: 1.03269 (Simulation time: 0 hr 17 min 29 sec) 
Heartbeat CPU 0 instructions: 390000003 cycles: 323297798 heartbeat IPC: 1.03242 cumulative IPC: 1.03269 (Simulation time: 0 hr 17 min 57 sec) 
Heartbeat CPU 0 instructions: 400000000 cycles: 332995942 heartbeat IPC: 1.03112 cumulative IPC: 1.03263 (Simulation time: 0 hr 18 min 26 sec) 
Heartbeat CPU 0 instructions: 410000002 cycles: 342695294 heartbeat IPC: 1.031 cumulative IPC: 1.03258 (Simulation time: 0 hr 18 min 54 sec) 
Heartbeat CPU 0 instructions: 420000001 cycles: 352304193 heartbeat IPC: 1.0407 cumulative IPC: 1.03283 (Simulation time: 0 hr 19 min 22 sec) 
Heartbeat CPU 0 instructions: 430000001 cycles: 362046632 heartbeat IPC: 1.02644 cumulative IPC: 1.03264 (Simulation time: 0 hr 19 min 51 sec) 
Heartbeat CPU 0 instructions: 440000000 cycles: 371792777 heartbeat IPC: 1.02605 cumulative IPC: 1.03244 (Simulation time: 0 hr 20 min 19 sec) 
Heartbeat CPU 0 instructions: 450000001 cycles: 381495124 heartbeat IPC: 1.03068 cumulative IPC: 1.03239 (Simulation time: 0 hr 20 min 47 sec) 
Heartbeat CPU 0 instructions: 460000001 cycles: 391256771 heartbeat IPC: 1.02442 cumulative IPC: 1.03217 (Simulation time: 0 hr 21 min 16 sec) 
Heartbeat CPU 0 instructions: 470000002 cycles: 400959297 heartbeat IPC: 1.03066 cumulative IPC: 1.03213 (Simulation time: 0 hr 21 min 44 sec) 
Heartbeat CPU 0 instructions: 480000003 cycles: 410660111 heartbeat IPC: 1.03084 cumulative IPC: 1.03209 (Simulation time: 0 hr 22 min 12 sec) 
Heartbeat CPU 0 instructions: 490000001 cycles: 420384332 heartbeat IPC: 1.02836 cumulative IPC: 1.032 (Simulation time: 0 hr 22 min 40 sec) 
Heartbeat CPU 0 instructions: 500000003 cycles: 430079064 heartbeat IPC: 1.03149 cumulative IPC: 1.03199 (Simulation time: 0 hr 23 min 9 sec) 
Heartbeat CPU 0 instructions: 510000000 cycles: 439784894 heartbeat IPC: 1.03031 cumulative IPC: 1.03194 (Simulation time: 0 hr 23 min 37 sec) 
Heartbeat CPU 0 instructions: 520000001 cycles: 449550132 heartbeat IPC: 1.02404 cumulative IPC: 1.03175 (Simulation time: 0 hr 24 min 5 sec) 
Heartbeat CPU 0 instructions: 530000000 cycles: 459192359 heartbeat IPC: 1.0371 cumulative IPC: 1.03188 (Simulation time: 0 hr 24 min 33 sec) 
Heartbeat CPU 0 instructions: 540000001 cycles: 468979381 heartbeat IPC: 1.02176 cumulative IPC: 1.03165 (Simulation time: 0 hr 25 min 1 sec) 
Heartbeat CPU 0 instructions: 550000000 cycles: 478669972 heartbeat IPC: 1.03193 cumulative IPC: 1.03165 (Simulation time: 0 hr 25 min 30 sec) 
Heartbeat CPU 0 instructions: 560000002 cycles: 488357918 heartbeat IPC: 1.03221 cumulative IPC: 1.03166 (Simulation time: 0 hr 25 min 58 sec) 
Heartbeat CPU 0 instructions: 570000003 cycles: 498017180 heartbeat IPC: 1.03528 cumulative IPC: 1.03174 (Simulation time: 0 hr 26 min 26 sec) 
Heartbeat CPU 0 instructions: 580000001 cycles: 507765583 heartbeat IPC: 1.02581 cumulative IPC: 1.03162 (Simulation time: 0 hr 26 min 55 sec) 
Heartbeat CPU 0 instructions: 590000003 cycles: 517514004 heartbeat IPC: 1.02581 cumulative IPC: 1.0315 (Simulation time: 0 hr 27 min 25 sec) 
Heartbeat CPU 0 instructions: 600000000 cycles: 527236497 heartbeat IPC: 1.02854 cumulative IPC: 1.03144 (Simulation time: 0 hr 27 min 54 sec) 
Heartbeat CPU 0 instructions: 610000001 cycles: 536938886 heartbeat IPC: 1.03067 cumulative IPC: 1.03142 (Simulation time: 0 hr 28 min 23 sec) 
Heartbeat CPU 0 instructions: 620000002 cycles: 546626500 heartbeat IPC: 1.03225 cumulative IPC: 1.03144 (Simulation time: 0 hr 28 min 52 sec) 
Heartbeat CPU 0 instructions: 630000002 cycles: 556361828 heartbeat IPC: 1.02719 cumulative IPC: 1.03136 (Simulation time: 0 hr 29 min 21 sec) 
Heartbeat CPU 0 instructions: 640000002 cycles: 566048330 heartbeat IPC: 1.03236 cumulative IPC: 1.03138 (Simulation time: 0 hr 29 min 50 sec) 
Heartbeat CPU 0 instructions: 650000001 cycles: 575783944 heartbeat IPC: 1.02716 cumulative IPC: 1.0313 (Simulation time: 0 hr 30 min 19 sec) 
Heartbeat CPU 0 instructions: 660000000 cycles: 585493855 heartbeat IPC: 1.02988 cumulative IPC: 1.03127 (Simulation time: 0 hr 30 min 49 sec) 
Heartbeat CPU 0 instructions: 670000003 cycles: 595192391 heartbeat IPC: 1.03108 cumulative IPC: 1.03127 (Simulation time: 0 hr 31 min 18 sec) 
Heartbeat CPU 0 instructions: 680000001 cycles: 604944905 heartbeat IPC: 1.02538 cumulative IPC: 1.03117 (Simulation time: 0 hr 31 min 47 sec) 
Heartbeat CPU 0 instructions: 690000002 cycles: 614642557 heartbeat IPC: 1.03118 cumulative IPC: 1.03117 (Simulation time: 0 hr 32 min 16 sec) 
Heartbeat CPU 0 instructions: 700000003 cycles: 624425846 heartbeat IPC: 1.02215 cumulative IPC: 1.03102 (Simulation time: 0 hr 32 min 45 sec) 
Heartbeat CPU 0 instructions: 710000003 cycles: 634155256 heartbeat IPC: 1.02781 cumulative IPC: 1.03096 (Simulation time: 0 hr 33 min 14 sec) 
Heartbeat CPU 0 instructions: 720000000 cycles: 643853842 heartbeat IPC: 1.03108 cumulative IPC: 1.03097 (Simulation time: 0 hr 33 min 43 sec) 
Heartbeat CPU 0 instructions: 730000003 cycles: 653551614 heartbeat IPC: 1.03117 cumulative IPC: 1.03097 (Simulation time: 0 hr 34 min 12 sec) 
Heartbeat CPU 0 instructions: 740000003 cycles: 663284696 heartbeat IPC: 1.02742 cumulative IPC: 1.03091 (Simulation time: 0 hr 34 min 41 sec) 
Heartbeat CPU 0 instructions: 750000001 cycles: 673058211 heartbeat IPC: 1.02317 cumulative IPC: 1.03079 (Simulation time: 0 hr 35 min 10 sec) 
Heartbeat CPU 0 instructions: 760000001 cycles: 682768953 heartbeat IPC: 1.02979 cumulative IPC: 1.03078 (Simulation time: 0 hr 35 min 39 sec) 
Heartbeat CPU 0 instructions: 770000000 cycles: 692440402 heartbeat IPC: 1.03397 cumulative IPC: 1.03083 (Simulation time: 0 hr 36 min 8 sec) 
Heartbeat CPU 0 instructions: 780000000 cycles: 702120448 heartbeat IPC: 1.03305 cumulative IPC: 1.03086 (Simulation time: 0 hr 36 min 38 sec) 
Heartbeat CPU 0 instructions: 790000000 cycles: 711788496 heartbeat IPC: 1.03433 cumulative IPC: 1.03091 (Simulation time: 0 hr 37 min 7 sec) 
Heartbeat CPU 0 instructions: 800000003 cycles: 721568762 heartbeat IPC: 1.02247 cumulative IPC: 1.03079 (Simulation time: 0 hr 37 min 36 sec) 
Heartbeat CPU 0 instructions: 810000001 cycles: 731251432 heartbeat IPC: 1.03277 cumulative IPC: 1.03082 (Simulation time: 0 hr 38 min 5 sec) 
Heartbeat CPU 0 instructions: 820000000 cycles: 740973511 heartbeat IPC: 1.02859 cumulative IPC: 1.03078 (Simulation time: 0 hr 38 min 34 sec) 
Heartbeat CPU 0 instructions: 830000003 cycles: 750682767 heartbeat IPC: 1.02995 cumulative IPC: 1.03077 (Simulation time: 0 hr 39 min 3 sec) 
Heartbeat CPU 0 instructions: 840000000 cycles: 760420911 heartbeat IPC: 1.02689 cumulative IPC: 1.03072 (Simulation time: 0 hr 39 min 32 sec) 
Heartbeat CPU 0 instructions: 850000001 cycles: 770147863 heartbeat IPC: 1.02807 cumulative IPC: 1.03069 (Simulation time: 0 hr 40 min 1 sec) 
Heartbeat CPU 0 instructions: 860000000 cycles: 779843992 heartbeat IPC: 1.03134 cumulative IPC: 1.03069 (Simulation time: 0 hr 40 min 30 sec) 
Heartbeat CPU 0 instructions: 870000001 cycles: 789534909 heartbeat IPC: 1.03189 cumulative IPC: 1.03071 (Simulation time: 0 hr 40 min 59 sec) 
Heartbeat CPU 0 instructions: 880000000 cycles: 799202531 heartbeat IPC: 1.03438 cumulative IPC: 1.03076 (Simulation time: 0 hr 41 min 28 sec) 
Heartbeat CPU 0 instructions: 890000001 cycles: 808905393 heartbeat IPC: 1.03062 cumulative IPC: 1.03075 (Simulation time: 0 hr 41 min 57 sec) 
Heartbeat CPU 0 instructions: 900000002 cycles: 818663138 heartbeat IPC: 1.02483 cumulative IPC: 1.03068 (Simulation time: 0 hr 42 min 26 sec) 
Heartbeat CPU 0 instructions: 910000001 cycles: 828305793 heartbeat IPC: 1.03706 cumulative IPC: 1.03076 (Simulation time: 0 hr 42 min 55 sec) 
Heartbeat CPU 0 instructions: 920000003 cycles: 838050037 heartbeat IPC: 1.02625 cumulative IPC: 1.0307 (Simulation time: 0 hr 43 min 24 sec) 
Heartbeat CPU 0 instructions: 930000002 cycles: 847741706 heartbeat IPC: 1.03181 cumulative IPC: 1.03072 (Simulation time: 0 hr 43 min 53 sec) 
Heartbeat CPU 0 instructions: 940000002 cycles: 857457624 heartbeat IPC: 1.02924 cumulative IPC: 1.0307 (Simulation time: 0 hr 44 min 22 sec) 
Heartbeat CPU 0 instructions: 950000000 cycles: 867248205 heartbeat IPC: 1.02139 cumulative IPC: 1.03059 (Simulation time: 0 hr 44 min 52 sec) 
Heartbeat CPU 0 instructions: 960000003 cycles: 876905356 heartbeat IPC: 1.0355 cumulative IPC: 1.03065 (Simulation time: 0 hr 45 min 21 sec) 
Heartbeat CPU 0 instructions: 970000002 cycles: 886509779 heartbeat IPC: 1.04119 cumulative IPC: 1.03077 (Simulation time: 0 hr 45 min 50 sec) 
Heartbeat CPU 0 instructions: 980000000 cycles: 896235060 heartbeat IPC: 1.02825 cumulative IPC: 1.03074 (Simulation time: 0 hr 46 min 19 sec) 
Heartbeat CPU 0 instructions: 990000000 cycles: 906010090 heartbeat IPC: 1.02301 cumulative IPC: 1.03065 (Simulation time: 0 hr 46 min 48 sec) 
Heartbeat CPU 0 instructions: 1000000000 cycles: 915652738 heartbeat IPC: 1.03706 cumulative IPC: 1.03072 (Simulation time: 0 hr 47 min 17 sec) 
Heartbeat CPU 0 instructions: 1010000003 cycles: 925394453 heartbeat IPC: 1.02651 cumulative IPC: 1.03067 (Simulation time: 0 hr 47 min 46 sec) 
Heartbeat CPU 0 instructions: 1020000001 cycles: 935124306 heartbeat IPC: 1.02776 cumulative IPC: 1.03064 (Simulation time: 0 hr 48 min 15 sec) 
Heartbeat CPU 0 instructions: 1030000003 cycles: 944819246 heartbeat IPC: 1.03147 cumulative IPC: 1.03065 (Simulation time: 0 hr 48 min 44 sec) 
Heartbeat CPU 0 instructions: 1040000002 cycles: 954484251 heartbeat IPC: 1.03466 cumulative IPC: 1.03069 (Simulation time: 0 hr 49 min 13 sec) 
Heartbeat CPU 0 instructions: 1050000003 cycles: 964098835 heartbeat IPC: 1.04009 cumulative IPC: 1.03079 (Simulation time: 0 hr 49 min 42 sec) 
Heartbeat CPU 0 instructions: 1060000001 cycles: 973837206 heartbeat IPC: 1.02687 cumulative IPC: 1.03075 (Simulation time: 0 hr 50 min 11 sec) 
Heartbeat CPU 0 instructions: 1070000001 cycles: 983458023 heartbeat IPC: 1.03941 cumulative IPC: 1.03084 (Simulation time: 0 hr 50 min 40 sec) 
Heartbeat CPU 0 instructions: 1080000000 cycles: 993207636 heartbeat IPC: 1.02568 cumulative IPC: 1.03079 (Simulation time: 0 hr 51 min 10 sec) 
Heartbeat CPU 0 instructions: 1090000003 cycles: 1002890204 heartbeat IPC: 1.03278 cumulative IPC: 1.03081 (Simulation time: 0 hr 51 min 39 sec) 
Heartbeat CPU 0 instructions: 1100000000 cycles: 1012555495 heartbeat IPC: 1.03463 cumulative IPC: 1.03084 (Simulation time: 0 hr 52 min 8 sec) 
Finished CPU 0 instructions: 1000000000 cycles: 970078952 cumulative IPC: 1.03084 (Simulation time: 0 hr 52 min 8 sec) 

ChampSim completed all CPUs

Region of Interest Statistics

CPU 0 cumulative IPC: 1.03084 instructions: 1000000000 cycles: 970078952
L1D TOTAL     ACCESS:  287513656  HIT:  171791623  MISS:  115722033
L1D LOAD      ACCESS:  174661795  HIT:   67050326  MISS:  107611469
L1D RFO       ACCESS:  112851861  HIT:  104741297  MISS:    8110564
L1D PREFETCH  ACCESS:          0  HIT:          0  MISS:          0
L1D WRITEBACK ACCESS:          0  HIT:          0  MISS:          0
L1D PREFETCH  REQUESTED:          0  ISSUED:          0  USEFUL:          0  USELESS:          0
L1D AVERAGE MISS LATENCY: 44.3126 cycles
L1I TOTAL     ACCESS:  150354206  HIT:  150354206  MISS:          0
L1I LOAD      ACCESS:  150354206  HIT:  150354206  MISS:          0
L1I RFO       ACCESS:          0  HIT:          0  MISS:          0
L1I PREFETCH  ACCESS:          0  HIT:          0  MISS:          0
L1I WRITEBACK ACCESS:          0  HIT:          0  MISS:          0
L1I PREFETCH  REQUESTED:          0  ISSUED:          0  USEFUL:          0  USELESS:          0
L1I AVERAGE MISS LATENCY: -nan cycles
L2C TOTAL     ACCESS:  123897241  HIT:   93320950  MISS:   30576291
L2C LOAD      ACCESS:  106588190  HIT:   79612451  MISS:   26975739
L2C RFO       ACCESS:    8104193  HIT:    4503641  MISS:    3600552
L2C PREFETCH  ACCESS:          0  HIT:          0  MISS:          0
L2C WRITEBACK ACCESS:    9204858  HIT:    9204858  MISS:          0
L2C PREFETCH  REQUESTED:          0  ISSUED:          0  USEFUL:          0  USELESS:          0
L2C AVERAGE MISS LATENCY: 117.364 cycles
LLC TOTAL     ACCESS:   34520776  HIT:   26779175  MISS:    7741601
LLC LOAD      ACCESS:   26968412  HIT:   19243408  MISS:    7725004
LLC RFO       ACCESS:    3441703  HIT:    3436156  MISS:       5547
LLC PREFETCH  ACCESS:          0  HIT:          0  MISS:          0
LLC WRITEBACK ACCESS:    4110661  HIT:    4099611  MISS:      11050
LLC PREFETCH  REQUESTED:          0  ISSUED:          0  USEFUL:          0  USELESS:          0
LLC AVERAGE MISS LATENCY: 303.579 cycles
Major fault: 0 Minor fault: 43201

DRAM Statistics
 CHANNEL 0
 RQ ROW_BUFFER_HIT:    3770625  ROW_BUFFER_MISS:    3959926
 DBUS_CONGESTED:    1072535
 WQ ROW_BUFFER_HIT:     577898  ROW_BUFFER_MISS:     378149  FULL:          0

 AVG_CONGESTED_CYCLE: 6

CPU 0 Branch Prediction Accuracy: 99.8488% MPKI: 0.001793 Average ROB Occupancy at Mispredict: 327.426

Branch types
NOT_BRANCH: 998814105 99.8814%
BRANCH_DIRECT_JUMP: 296912 0.0296912%
BRANCH_INDIRECT: 295123 0.0295123%
BRANCH_CONDITIONAL: 593824 0.0593824%
BRANCH_DIRECT_CALL: 0 0%
BRANCH_INDIRECT_CALL: 0 0%
BRANCH_RETURN: 0 0%
BRANCH_OTHER: 0 0%

