
*** ChampSim Multicore Out-of-Order Simulator ***

Warmup Instructions: 100000000
Simulation Instructions: 1000000000
Number of CPUs: 1
LLC sets: 2048
LLC ways: 16
Off-chip DRAM Size: 4096 MB Channels: 1 Width: 64-bit Data Rate: 3200 MT/s

CPU 0 runs /scratch/user/kevin.weston/dpc3-traces/607.champsimtrace.xz
CPU 0 Bimodal branch predictor
Initialize SHIP state
Assign rand_sets[0]: 454  LLC: 2048
rand_sets[0]: 454
Assign rand_sets[1]: 1662  LLC: 2048
rand_sets[1]: 1662
Assign rand_sets[2]: 1921  LLC: 2048
rand_sets[2]: 1921
Assign rand_sets[3]: 1131  LLC: 2048
rand_sets[3]: 1131
Assign rand_sets[4]: 331  LLC: 2048
rand_sets[4]: 331
Assign rand_sets[5]: 1531  LLC: 2048
rand_sets[5]: 1531
Assign rand_sets[6]: 482  LLC: 2048
rand_sets[6]: 482
Assign rand_sets[7]: 1275  LLC: 2048
rand_sets[7]: 1275
Assign rand_sets[8]: 1876  LLC: 2048
rand_sets[8]: 1876
Assign rand_sets[9]: 2038  LLC: 2048
rand_sets[9]: 2038
Assign rand_sets[10]: 701  LLC: 2048
rand_sets[10]: 701
Assign rand_sets[11]: 479  LLC: 2048
rand_sets[11]: 479
Assign rand_sets[12]: 892  LLC: 2048
rand_sets[12]: 892
Assign rand_sets[13]: 1820  LLC: 2048
rand_sets[13]: 1820
Assign rand_sets[14]: 1505  LLC: 2048
rand_sets[14]: 1505
Assign rand_sets[15]: 1159  LLC: 2048
rand_sets[15]: 1159
Assign rand_sets[16]: 513  LLC: 2048
rand_sets[16]: 513
Assign rand_sets[17]: 703  LLC: 2048
rand_sets[17]: 703
Assign rand_sets[18]: 561  LLC: 2048
rand_sets[18]: 561
Assign rand_sets[19]: 990  LLC: 2048
rand_sets[19]: 990
Assign rand_sets[20]: 342  LLC: 2048
rand_sets[20]: 342
Assign rand_sets[21]: 882  LLC: 2048
rand_sets[21]: 882
Assign rand_sets[22]: 15  LLC: 2048
rand_sets[22]: 15
Assign rand_sets[23]: 71  LLC: 2048
rand_sets[23]: 71
Assign rand_sets[24]: 1127  LLC: 2048
rand_sets[24]: 1127
Assign rand_sets[25]: 1382  LLC: 2048
rand_sets[25]: 1382
Assign rand_sets[26]: 647  LLC: 2048
rand_sets[26]: 647
Assign rand_sets[27]: 857  LLC: 2048
rand_sets[27]: 857
Assign rand_sets[28]: 1450  LLC: 2048
rand_sets[28]: 1450
Assign rand_sets[29]: 1160  LLC: 2048
rand_sets[29]: 1160
Assign rand_sets[30]: 1852  LLC: 2048
rand_sets[30]: 1852
Assign rand_sets[31]: 1881  LLC: 2048
rand_sets[31]: 1881
Assign rand_sets[32]: 1770  LLC: 2048
rand_sets[32]: 1770
Assign rand_sets[33]: 1622  LLC: 2048
rand_sets[33]: 1622
Assign rand_sets[34]: 275  LLC: 2048
rand_sets[34]: 275
Assign rand_sets[35]: 635  LLC: 2048
rand_sets[35]: 635
Assign rand_sets[36]: 466  LLC: 2048
rand_sets[36]: 466
Assign rand_sets[37]: 1413  LLC: 2048
rand_sets[37]: 1413
Assign rand_sets[38]: 417  LLC: 2048
rand_sets[38]: 417
Assign rand_sets[39]: 472  LLC: 2048
rand_sets[39]: 472
Assign rand_sets[40]: 1340  LLC: 2048
rand_sets[40]: 1340
Assign rand_sets[41]: 852  LLC: 2048
rand_sets[41]: 852
Assign rand_sets[42]: 1365  LLC: 2048
rand_sets[42]: 1365
Assign rand_sets[43]: 47  LLC: 2048
rand_sets[43]: 47
Assign rand_sets[44]: 823  LLC: 2048
rand_sets[44]: 823
Assign rand_sets[45]: 686  LLC: 2048
rand_sets[45]: 686
Assign rand_sets[46]: 1637  LLC: 2048
rand_sets[46]: 1637
Assign rand_sets[47]: 1115  LLC: 2048
rand_sets[47]: 1115
Assign rand_sets[48]: 986  LLC: 2048
rand_sets[48]: 986
Assign rand_sets[49]: 258  LLC: 2048
rand_sets[49]: 258
Assign rand_sets[50]: 633  LLC: 2048
rand_sets[50]: 633
Assign rand_sets[51]: 920  LLC: 2048
rand_sets[51]: 920
Assign rand_sets[52]: 204  LLC: 2048
rand_sets[52]: 204
Assign rand_sets[53]: 227  LLC: 2048
rand_sets[53]: 227
Assign rand_sets[54]: 1818  LLC: 2048
rand_sets[54]: 1818
Assign rand_sets[55]: 886  LLC: 2048
rand_sets[55]: 886
Assign rand_sets[56]: 1422  LLC: 2048
rand_sets[56]: 1422
Assign rand_sets[57]: 607  LLC: 2048
rand_sets[57]: 607
Assign rand_sets[58]: 217  LLC: 2048
rand_sets[58]: 217
Assign rand_sets[59]: 1945  LLC: 2048
rand_sets[59]: 1945
Assign rand_sets[60]: 143  LLC: 2048
rand_sets[60]: 143
Assign rand_sets[61]: 1311  LLC: 2048
rand_sets[61]: 1311
Assign rand_sets[62]: 319  LLC: 2048
rand_sets[62]: 319
Assign rand_sets[63]: 1846  LLC: 2048
rand_sets[63]: 1846
Assign rand_sets[64]: 238  LLC: 2048
rand_sets[64]: 238
Assign rand_sets[65]: 67  LLC: 2048
rand_sets[65]: 67
Assign rand_sets[66]: 1912  LLC: 2048
rand_sets[66]: 1912
Assign rand_sets[67]: 1613  LLC: 2048
rand_sets[67]: 1613
Assign rand_sets[68]: 1293  LLC: 2048
rand_sets[68]: 1293
Assign rand_sets[69]: 1018  LLC: 2048
rand_sets[69]: 1018
Assign rand_sets[70]: 1982  LLC: 2048
rand_sets[70]: 1982
Assign rand_sets[71]: 1702  LLC: 2048
rand_sets[71]: 1702
Assign rand_sets[72]: 1498  LLC: 2048
rand_sets[72]: 1498
Assign rand_sets[73]: 228  LLC: 2048
rand_sets[73]: 228
Assign rand_sets[74]: 1414  LLC: 2048
rand_sets[74]: 1414
Assign rand_sets[75]: 1166  LLC: 2048
rand_sets[75]: 1166
Assign rand_sets[76]: 732  LLC: 2048
rand_sets[76]: 732
Assign rand_sets[77]: 297  LLC: 2048
rand_sets[77]: 297
Assign rand_sets[78]: 1133  LLC: 2048
rand_sets[78]: 1133
Assign rand_sets[79]: 846  LLC: 2048
rand_sets[79]: 846
Assign rand_sets[80]: 767  LLC: 2048
rand_sets[80]: 767
Assign rand_sets[81]: 1878  LLC: 2048
rand_sets[81]: 1878
Assign rand_sets[82]: 993  LLC: 2048
rand_sets[82]: 993
Assign rand_sets[83]: 1392  LLC: 2048
rand_sets[83]: 1392
Assign rand_sets[84]: 1568  LLC: 2048
rand_sets[84]: 1568
Assign rand_sets[85]: 1787  LLC: 2048
rand_sets[85]: 1787
Assign rand_sets[86]: 399  LLC: 2048
rand_sets[86]: 399
Assign rand_sets[87]: 1201  LLC: 2048
rand_sets[87]: 1201
Assign rand_sets[88]: 856  LLC: 2048
rand_sets[88]: 856
Assign rand_sets[89]: 773  LLC: 2048
rand_sets[89]: 773
Assign rand_sets[90]: 1680  LLC: 2048
rand_sets[90]: 1680
Assign rand_sets[91]: 1477  LLC: 2048
rand_sets[91]: 1477
Assign rand_sets[92]: 9  LLC: 2048
rand_sets[92]: 9
Assign rand_sets[93]: 1500  LLC: 2048
rand_sets[93]: 1500
Assign rand_sets[94]: 851  LLC: 2048
rand_sets[94]: 851
Assign rand_sets[95]: 973  LLC: 2048
rand_sets[95]: 973
Assign rand_sets[96]: 938  LLC: 2048
rand_sets[96]: 938
Assign rand_sets[97]: 1851  LLC: 2048
rand_sets[97]: 1851
Assign rand_sets[98]: 1608  LLC: 2048
rand_sets[98]: 1608
Assign rand_sets[99]: 1945  LLC: 2048
Assign rand_sets[99]: 1106  LLC: 2048
rand_sets[99]: 1106
Assign rand_sets[100]: 979  LLC: 2048
rand_sets[100]: 979
Assign rand_sets[101]: 338  LLC: 2048
rand_sets[101]: 338
Assign rand_sets[102]: 1693  LLC: 2048
rand_sets[102]: 1693
Assign rand_sets[103]: 6  LLC: 2048
rand_sets[103]: 6
Assign rand_sets[104]: 671  LLC: 2048
rand_sets[104]: 671
Assign rand_sets[105]: 490  LLC: 2048
rand_sets[105]: 490
Assign rand_sets[106]: 1461  LLC: 2048
rand_sets[106]: 1461
Assign rand_sets[107]: 1730  LLC: 2048
rand_sets[107]: 1730
Assign rand_sets[108]: 1030  LLC: 2048
rand_sets[108]: 1030
Assign rand_sets[109]: 19  LLC: 2048
rand_sets[109]: 19
Assign rand_sets[110]: 920  LLC: 2048
Assign rand_sets[110]: 329  LLC: 2048
rand_sets[110]: 329
Assign rand_sets[111]: 1714  LLC: 2048
rand_sets[111]: 1714
Assign rand_sets[112]: 1  LLC: 2048
rand_sets[112]: 1
Assign rand_sets[113]: 1822  LLC: 2048
rand_sets[113]: 1822
Assign rand_sets[114]: 172  LLC: 2048
rand_sets[114]: 172
Assign rand_sets[115]: 1586  LLC: 2048
rand_sets[115]: 1586
Assign rand_sets[116]: 648  LLC: 2048
rand_sets[116]: 648
Assign rand_sets[117]: 1329  LLC: 2048
rand_sets[117]: 1329
Assign rand_sets[118]: 668  LLC: 2048
rand_sets[118]: 668
Assign rand_sets[119]: 1874  LLC: 2048
rand_sets[119]: 1874
Assign rand_sets[120]: 70  LLC: 2048
rand_sets[120]: 70
Assign rand_sets[121]: 661  LLC: 2048
rand_sets[121]: 661
Assign rand_sets[122]: 1649  LLC: 2048
rand_sets[122]: 1649
Assign rand_sets[123]: 1590  LLC: 2048
rand_sets[123]: 1590
Assign rand_sets[124]: 911  LLC: 2048
rand_sets[124]: 911
Assign rand_sets[125]: 1367  LLC: 2048
rand_sets[125]: 1367
Assign rand_sets[126]: 1782  LLC: 2048
rand_sets[126]: 1782
Assign rand_sets[127]: 569  LLC: 2048
rand_sets[127]: 569
Heartbeat CPU 0 instructions: 10000002 cycles: 4836491 heartbeat IPC: 2.06762 cumulative IPC: 2.06762 (Simulation time: 0 hr 0 min 27 sec) 
Heartbeat CPU 0 instructions: 20000001 cycles: 9669400 heartbeat IPC: 2.06915 cumulative IPC: 2.06838 (Simulation time: 0 hr 0 min 54 sec) 
Heartbeat CPU 0 instructions: 30000002 cycles: 14504088 heartbeat IPC: 2.06839 cumulative IPC: 2.06838 (Simulation time: 0 hr 1 min 21 sec) 
Heartbeat CPU 0 instructions: 40000003 cycles: 19338610 heartbeat IPC: 2.06846 cumulative IPC: 2.0684 (Simulation time: 0 hr 1 min 48 sec) 
Heartbeat CPU 0 instructions: 50000000 cycles: 24174248 heartbeat IPC: 2.06798 cumulative IPC: 2.06832 (Simulation time: 0 hr 2 min 15 sec) 
Heartbeat CPU 0 instructions: 60000000 cycles: 28026181 heartbeat IPC: 2.5961 cumulative IPC: 2.14086 (Simulation time: 0 hr 2 min 38 sec) 
Heartbeat CPU 0 instructions: 70000001 cycles: 31639787 heartbeat IPC: 2.76732 cumulative IPC: 2.2124 (Simulation time: 0 hr 3 min 1 sec) 
Heartbeat CPU 0 instructions: 80000003 cycles: 35251266 heartbeat IPC: 2.76895 cumulative IPC: 2.26942 (Simulation time: 0 hr 3 min 24 sec) 
Heartbeat CPU 0 instructions: 90000001 cycles: 38863457 heartbeat IPC: 2.7684 cumulative IPC: 2.3158 (Simulation time: 0 hr 3 min 47 sec) 
Heartbeat CPU 0 instructions: 100000001 cycles: 42476813 heartbeat IPC: 2.76751 cumulative IPC: 2.35423 (Simulation time: 0 hr 4 min 10 sec) 

Warmup complete CPU 0 instructions: 100000001 cycles: 42476813 (Simulation time: 0 hr 4 min 10 sec) 

Heartbeat CPU 0 instructions: 110000000 cycles: 51800812 heartbeat IPC: 1.0725 cumulative IPC: 1.0725 (Simulation time: 0 hr 4 min 37 sec) 
Heartbeat CPU 0 instructions: 120000000 cycles: 61128599 heartbeat IPC: 1.07207 cumulative IPC: 1.07228 (Simulation time: 0 hr 5 min 5 sec) 
Heartbeat CPU 0 instructions: 130000002 cycles: 70429826 heartbeat IPC: 1.07513 cumulative IPC: 1.07323 (Simulation time: 0 hr 5 min 33 sec) 
Heartbeat CPU 0 instructions: 140000002 cycles: 79728645 heartbeat IPC: 1.07541 cumulative IPC: 1.07377 (Simulation time: 0 hr 6 min 1 sec) 
Heartbeat CPU 0 instructions: 150000003 cycles: 89278900 heartbeat IPC: 1.04709 cumulative IPC: 1.06833 (Simulation time: 0 hr 6 min 29 sec) 
Heartbeat CPU 0 instructions: 160000002 cycles: 98627007 heartbeat IPC: 1.06974 cumulative IPC: 1.06856 (Simulation time: 0 hr 6 min 57 sec) 
Heartbeat CPU 0 instructions: 170000002 cycles: 107966854 heartbeat IPC: 1.07068 cumulative IPC: 1.06886 (Simulation time: 0 hr 7 min 25 sec) 
Heartbeat CPU 0 instructions: 180000001 cycles: 117301369 heartbeat IPC: 1.07129 cumulative IPC: 1.06917 (Simulation time: 0 hr 7 min 53 sec) 
Heartbeat CPU 0 instructions: 190000000 cycles: 126689407 heartbeat IPC: 1.06519 cumulative IPC: 1.06872 (Simulation time: 0 hr 8 min 21 sec) 
Heartbeat CPU 0 instructions: 200000003 cycles: 136134853 heartbeat IPC: 1.05871 cumulative IPC: 1.06771 (Simulation time: 0 hr 8 min 50 sec) 
Heartbeat CPU 0 instructions: 210000001 cycles: 145479682 heartbeat IPC: 1.07011 cumulative IPC: 1.06793 (Simulation time: 0 hr 9 min 18 sec) 
Heartbeat CPU 0 instructions: 220000000 cycles: 154865025 heartbeat IPC: 1.06549 cumulative IPC: 1.06773 (Simulation time: 0 hr 9 min 46 sec) 
Heartbeat CPU 0 instructions: 230000003 cycles: 164230343 heartbeat IPC: 1.06777 cumulative IPC: 1.06773 (Simulation time: 0 hr 10 min 14 sec) 
Heartbeat CPU 0 instructions: 240000000 cycles: 173748314 heartbeat IPC: 1.05064 cumulative IPC: 1.06649 (Simulation time: 0 hr 10 min 42 sec) 
Heartbeat CPU 0 instructions: 250000002 cycles: 183118669 heartbeat IPC: 1.0672 cumulative IPC: 1.06654 (Simulation time: 0 hr 11 min 10 sec) 
Heartbeat CPU 0 instructions: 260000001 cycles: 192476859 heartbeat IPC: 1.06858 cumulative IPC: 1.06667 (Simulation time: 0 hr 11 min 38 sec) 
Heartbeat CPU 0 instructions: 270000000 cycles: 201795890 heartbeat IPC: 1.07307 cumulative IPC: 1.06704 (Simulation time: 0 hr 12 min 6 sec) 
Heartbeat CPU 0 instructions: 280000000 cycles: 211117570 heartbeat IPC: 1.07277 cumulative IPC: 1.06736 (Simulation time: 0 hr 12 min 34 sec) 
Heartbeat CPU 0 instructions: 290000000 cycles: 220501012 heartbeat IPC: 1.06571 cumulative IPC: 1.06727 (Simulation time: 0 hr 13 min 2 sec) 
Heartbeat CPU 0 instructions: 300000001 cycles: 229830412 heartbeat IPC: 1.07188 cumulative IPC: 1.0675 (Simulation time: 0 hr 13 min 30 sec) 
Heartbeat CPU 0 instructions: 310000001 cycles: 239213078 heartbeat IPC: 1.0658 cumulative IPC: 1.06742 (Simulation time: 0 hr 13 min 57 sec) 
Heartbeat CPU 0 instructions: 320000002 cycles: 248639737 heartbeat IPC: 1.06082 cumulative IPC: 1.06712 (Simulation time: 0 hr 14 min 25 sec) 
Heartbeat CPU 0 instructions: 330000000 cycles: 257958374 heartbeat IPC: 1.07312 cumulative IPC: 1.06738 (Simulation time: 0 hr 14 min 53 sec) 
Heartbeat CPU 0 instructions: 340000003 cycles: 267518243 heartbeat IPC: 1.04604 cumulative IPC: 1.06647 (Simulation time: 0 hr 15 min 22 sec) 
Heartbeat CPU 0 instructions: 350000000 cycles: 276868255 heartbeat IPC: 1.06952 cumulative IPC: 1.06659 (Simulation time: 0 hr 15 min 50 sec) 
Heartbeat CPU 0 instructions: 360000003 cycles: 286222631 heartbeat IPC: 1.06902 cumulative IPC: 1.06668 (Simulation time: 0 hr 16 min 18 sec) 
Heartbeat CPU 0 instructions: 370000003 cycles: 295590518 heartbeat IPC: 1.06748 cumulative IPC: 1.06671 (Simulation time: 0 hr 16 min 46 sec) 
Heartbeat CPU 0 instructions: 380000000 cycles: 304930289 heartbeat IPC: 1.07069 cumulative IPC: 1.06686 (Simulation time: 0 hr 17 min 14 sec) 
Heartbeat CPU 0 instructions: 390000003 cycles: 314234130 heartbeat IPC: 1.07483 cumulative IPC: 1.06713 (Simulation time: 0 hr 17 min 42 sec) 
Heartbeat CPU 0 instructions: 400000000 cycles: 323590110 heartbeat IPC: 1.06883 cumulative IPC: 1.06719 (Simulation time: 0 hr 18 min 10 sec) 
Heartbeat CPU 0 instructions: 410000002 cycles: 332967215 heartbeat IPC: 1.06643 cumulative IPC: 1.06716 (Simulation time: 0 hr 18 min 38 sec) 
Heartbeat CPU 0 instructions: 420000001 cycles: 342345079 heartbeat IPC: 1.06634 cumulative IPC: 1.06714 (Simulation time: 0 hr 19 min 6 sec) 
Heartbeat CPU 0 instructions: 430000001 cycles: 351857938 heartbeat IPC: 1.05121 cumulative IPC: 1.06665 (Simulation time: 0 hr 19 min 34 sec) 
Heartbeat CPU 0 instructions: 440000000 cycles: 361265970 heartbeat IPC: 1.06292 cumulative IPC: 1.06654 (Simulation time: 0 hr 20 min 2 sec) 
Heartbeat CPU 0 instructions: 450000001 cycles: 370577313 heartbeat IPC: 1.07396 cumulative IPC: 1.06675 (Simulation time: 0 hr 20 min 31 sec) 
Heartbeat CPU 0 instructions: 460000001 cycles: 379936434 heartbeat IPC: 1.06848 cumulative IPC: 1.06679 (Simulation time: 0 hr 21 min 0 sec) 
Heartbeat CPU 0 instructions: 470000002 cycles: 389271363 heartbeat IPC: 1.07125 cumulative IPC: 1.06691 (Simulation time: 0 hr 21 min 29 sec) 
Heartbeat CPU 0 instructions: 480000003 cycles: 398691448 heartbeat IPC: 1.06156 cumulative IPC: 1.06677 (Simulation time: 0 hr 21 min 57 sec) 
Heartbeat CPU 0 instructions: 490000001 cycles: 408056116 heartbeat IPC: 1.06784 cumulative IPC: 1.0668 (Simulation time: 0 hr 22 min 25 sec) 
Heartbeat CPU 0 instructions: 500000003 cycles: 417448973 heartbeat IPC: 1.06464 cumulative IPC: 1.06675 (Simulation time: 0 hr 22 min 53 sec) 
Heartbeat CPU 0 instructions: 510000000 cycles: 426856998 heartbeat IPC: 1.06292 cumulative IPC: 1.06665 (Simulation time: 0 hr 23 min 21 sec) 
Heartbeat CPU 0 instructions: 520000001 cycles: 436366342 heartbeat IPC: 1.0516 cumulative IPC: 1.06629 (Simulation time: 0 hr 23 min 49 sec) 
Heartbeat CPU 0 instructions: 530000000 cycles: 445740274 heartbeat IPC: 1.06679 cumulative IPC: 1.0663 (Simulation time: 0 hr 24 min 17 sec) 
Heartbeat CPU 0 instructions: 540000001 cycles: 455137391 heartbeat IPC: 1.06416 cumulative IPC: 1.06625 (Simulation time: 0 hr 24 min 45 sec) 
Heartbeat CPU 0 instructions: 550000000 cycles: 464473703 heartbeat IPC: 1.07109 cumulative IPC: 1.06636 (Simulation time: 0 hr 25 min 13 sec) 
Heartbeat CPU 0 instructions: 560000002 cycles: 473884661 heartbeat IPC: 1.06259 cumulative IPC: 1.06628 (Simulation time: 0 hr 25 min 41 sec) 
Heartbeat CPU 0 instructions: 570000003 cycles: 483260835 heartbeat IPC: 1.06653 cumulative IPC: 1.06628 (Simulation time: 0 hr 26 min 9 sec) 
Heartbeat CPU 0 instructions: 580000001 cycles: 492598478 heartbeat IPC: 1.07093 cumulative IPC: 1.06638 (Simulation time: 0 hr 26 min 37 sec) 
Heartbeat CPU 0 instructions: 590000003 cycles: 502043572 heartbeat IPC: 1.05875 cumulative IPC: 1.06622 (Simulation time: 0 hr 27 min 5 sec) 
Heartbeat CPU 0 instructions: 600000000 cycles: 511434169 heartbeat IPC: 1.06489 cumulative IPC: 1.0662 (Simulation time: 0 hr 27 min 33 sec) 
Heartbeat CPU 0 instructions: 610000001 cycles: 520840774 heartbeat IPC: 1.06308 cumulative IPC: 1.06613 (Simulation time: 0 hr 28 min 1 sec) 
Heartbeat CPU 0 instructions: 620000002 cycles: 530358417 heartbeat IPC: 1.05068 cumulative IPC: 1.06583 (Simulation time: 0 hr 28 min 31 sec) 
Heartbeat CPU 0 instructions: 630000001 cycles: 539712758 heartbeat IPC: 1.06902 cumulative IPC: 1.06589 (Simulation time: 0 hr 29 min 0 sec) 
Heartbeat CPU 0 instructions: 640000002 cycles: 549070660 heartbeat IPC: 1.06862 cumulative IPC: 1.06594 (Simulation time: 0 hr 29 min 29 sec) 
Heartbeat CPU 0 instructions: 650000001 cycles: 558437358 heartbeat IPC: 1.06761 cumulative IPC: 1.06597 (Simulation time: 0 hr 29 min 58 sec) 
Heartbeat CPU 0 instructions: 660000000 cycles: 567849654 heartbeat IPC: 1.06244 cumulative IPC: 1.06591 (Simulation time: 0 hr 30 min 27 sec) 
Heartbeat CPU 0 instructions: 670000003 cycles: 577159212 heartbeat IPC: 1.07417 cumulative IPC: 1.06605 (Simulation time: 0 hr 30 min 56 sec) 
Heartbeat CPU 0 instructions: 680000001 cycles: 586507731 heartbeat IPC: 1.06969 cumulative IPC: 1.06612 (Simulation time: 0 hr 31 min 25 sec) 
Heartbeat CPU 0 instructions: 690000002 cycles: 595863861 heartbeat IPC: 1.06882 cumulative IPC: 1.06616 (Simulation time: 0 hr 31 min 55 sec) 
Heartbeat CPU 0 instructions: 700000003 cycles: 605316287 heartbeat IPC: 1.05793 cumulative IPC: 1.06602 (Simulation time: 0 hr 32 min 25 sec) 
Heartbeat CPU 0 instructions: 710000003 cycles: 614795547 heartbeat IPC: 1.05493 cumulative IPC: 1.06584 (Simulation time: 0 hr 32 min 54 sec) 
Heartbeat CPU 0 instructions: 720000000 cycles: 624196512 heartbeat IPC: 1.06372 cumulative IPC: 1.06581 (Simulation time: 0 hr 33 min 24 sec) 
Heartbeat CPU 0 instructions: 730000003 cycles: 633587374 heartbeat IPC: 1.06487 cumulative IPC: 1.06579 (Simulation time: 0 hr 33 min 53 sec) 
Heartbeat CPU 0 instructions: 740000003 cycles: 642967959 heartbeat IPC: 1.06603 cumulative IPC: 1.06579 (Simulation time: 0 hr 34 min 23 sec) 
Heartbeat CPU 0 instructions: 750000001 cycles: 652339643 heartbeat IPC: 1.06704 cumulative IPC: 1.06581 (Simulation time: 0 hr 34 min 52 sec) 
Heartbeat CPU 0 instructions: 760000001 cycles: 661743193 heartbeat IPC: 1.06343 cumulative IPC: 1.06578 (Simulation time: 0 hr 35 min 22 sec) 
Heartbeat CPU 0 instructions: 770000000 cycles: 671158301 heartbeat IPC: 1.06212 cumulative IPC: 1.06572 (Simulation time: 0 hr 35 min 51 sec) 
Heartbeat CPU 0 instructions: 780000000 cycles: 680504498 heartbeat IPC: 1.06995 cumulative IPC: 1.06578 (Simulation time: 0 hr 36 min 20 sec) 
Heartbeat CPU 0 instructions: 790000000 cycles: 689897704 heartbeat IPC: 1.0646 cumulative IPC: 1.06577 (Simulation time: 0 hr 36 min 50 sec) 
Heartbeat CPU 0 instructions: 800000003 cycles: 699386708 heartbeat IPC: 1.05385 cumulative IPC: 1.0656 (Simulation time: 0 hr 37 min 19 sec) 
Heartbeat CPU 0 instructions: 810000001 cycles: 708762532 heartbeat IPC: 1.06657 cumulative IPC: 1.06561 (Simulation time: 0 hr 37 min 48 sec) 
Heartbeat CPU 0 instructions: 820000000 cycles: 718116500 heartbeat IPC: 1.06906 cumulative IPC: 1.06566 (Simulation time: 0 hr 38 min 18 sec) 
Heartbeat CPU 0 instructions: 830000003 cycles: 727566734 heartbeat IPC: 1.05818 cumulative IPC: 1.06555 (Simulation time: 0 hr 38 min 47 sec) 
Heartbeat CPU 0 instructions: 840000000 cycles: 736938696 heartbeat IPC: 1.06701 cumulative IPC: 1.06557 (Simulation time: 0 hr 39 min 16 sec) 
Heartbeat CPU 0 instructions: 850000001 cycles: 746317459 heartbeat IPC: 1.06624 cumulative IPC: 1.06558 (Simulation time: 0 hr 39 min 45 sec) 
Heartbeat CPU 0 instructions: 860000000 cycles: 755671382 heartbeat IPC: 1.06907 cumulative IPC: 1.06563 (Simulation time: 0 hr 40 min 15 sec) 
Heartbeat CPU 0 instructions: 870000001 cycles: 765013322 heartbeat IPC: 1.07044 cumulative IPC: 1.06569 (Simulation time: 0 hr 40 min 44 sec) 
Heartbeat CPU 0 instructions: 880000000 cycles: 774427319 heartbeat IPC: 1.06225 cumulative IPC: 1.06565 (Simulation time: 0 hr 41 min 14 sec) 
Heartbeat CPU 0 instructions: 890000001 cycles: 783806315 heartbeat IPC: 1.06621 cumulative IPC: 1.06565 (Simulation time: 0 hr 41 min 43 sec) 
Heartbeat CPU 0 instructions: 900000002 cycles: 793307861 heartbeat IPC: 1.05246 cumulative IPC: 1.06549 (Simulation time: 0 hr 42 min 12 sec) 
Heartbeat CPU 0 instructions: 910000002 cycles: 802695978 heartbeat IPC: 1.06518 cumulative IPC: 1.06548 (Simulation time: 0 hr 42 min 42 sec) 
Heartbeat CPU 0 instructions: 920000003 cycles: 812126581 heartbeat IPC: 1.06038 cumulative IPC: 1.06542 (Simulation time: 0 hr 43 min 11 sec) 
Heartbeat CPU 0 instructions: 930000002 cycles: 821449512 heartbeat IPC: 1.07262 cumulative IPC: 1.06551 (Simulation time: 0 hr 43 min 40 sec) 
Heartbeat CPU 0 instructions: 940000002 cycles: 830792091 heartbeat IPC: 1.07037 cumulative IPC: 1.06556 (Simulation time: 0 hr 44 min 10 sec) 
Heartbeat CPU 0 instructions: 950000000 cycles: 840176967 heartbeat IPC: 1.06554 cumulative IPC: 1.06556 (Simulation time: 0 hr 44 min 39 sec) 
Heartbeat CPU 0 instructions: 960000003 cycles: 849543718 heartbeat IPC: 1.06761 cumulative IPC: 1.06559 (Simulation time: 0 hr 45 min 8 sec) 
Heartbeat CPU 0 instructions: 970000002 cycles: 858924675 heartbeat IPC: 1.06599 cumulative IPC: 1.06559 (Simulation time: 0 hr 45 min 38 sec) 
Heartbeat CPU 0 instructions: 980000000 cycles: 868413017 heartbeat IPC: 1.05392 cumulative IPC: 1.06546 (Simulation time: 0 hr 46 min 7 sec) 
Heartbeat CPU 0 instructions: 990000000 cycles: 877902810 heartbeat IPC: 1.05376 cumulative IPC: 1.06532 (Simulation time: 0 hr 46 min 37 sec) 
Heartbeat CPU 0 instructions: 1000000000 cycles: 887296795 heartbeat IPC: 1.06451 cumulative IPC: 1.06532 (Simulation time: 0 hr 47 min 6 sec) 
Heartbeat CPU 0 instructions: 1010000003 cycles: 896696583 heartbeat IPC: 1.06385 cumulative IPC: 1.0653 (Simulation time: 0 hr 47 min 36 sec) 
Heartbeat CPU 0 instructions: 1020000001 cycles: 906112273 heartbeat IPC: 1.06206 cumulative IPC: 1.06526 (Simulation time: 0 hr 48 min 5 sec) 
Heartbeat CPU 0 instructions: 1030000003 cycles: 915489446 heartbeat IPC: 1.06642 cumulative IPC: 1.06528 (Simulation time: 0 hr 48 min 34 sec) 
Heartbeat CPU 0 instructions: 1040000002 cycles: 924883743 heartbeat IPC: 1.06448 cumulative IPC: 1.06527 (Simulation time: 0 hr 49 min 4 sec) 
Heartbeat CPU 0 instructions: 1050000003 cycles: 934267555 heartbeat IPC: 1.06567 cumulative IPC: 1.06527 (Simulation time: 0 hr 49 min 33 sec) 
Heartbeat CPU 0 instructions: 1060000001 cycles: 943623398 heartbeat IPC: 1.06885 cumulative IPC: 1.06531 (Simulation time: 0 hr 50 min 3 sec) 
Heartbeat CPU 0 instructions: 1070000001 cycles: 952976557 heartbeat IPC: 1.06916 cumulative IPC: 1.06535 (Simulation time: 0 hr 50 min 32 sec) 
Heartbeat CPU 0 instructions: 1080000000 cycles: 962407422 heartbeat IPC: 1.06035 cumulative IPC: 1.0653 (Simulation time: 0 hr 51 min 2 sec) 
Heartbeat CPU 0 instructions: 1090000003 cycles: 971832012 heartbeat IPC: 1.06105 cumulative IPC: 1.06525 (Simulation time: 0 hr 51 min 31 sec) 
Heartbeat CPU 0 instructions: 1100000000 cycles: 981195069 heartbeat IPC: 1.06803 cumulative IPC: 1.06528 (Simulation time: 0 hr 52 min 0 sec) 
Finished CPU 0 instructions: 1000000000 cycles: 938718257 cumulative IPC: 1.06528 (Simulation time: 0 hr 52 min 0 sec) 

ChampSim completed all CPUs

Region of Interest Statistics

CPU 0 cumulative IPC: 1.06528 instructions: 1000000000 cycles: 938718257
L1D TOTAL     ACCESS:  287530890  HIT:  171805485  MISS:  115725405
L1D LOAD      ACCESS:  174677600  HIT:   67062662  MISS:  107614938
L1D RFO       ACCESS:  112853290  HIT:  104742823  MISS:    8110467
L1D PREFETCH  ACCESS:          0  HIT:          0  MISS:          0
L1D WRITEBACK ACCESS:          0  HIT:          0  MISS:          0
L1D PREFETCH  REQUESTED:          0  ISSUED:          0  USEFUL:          0  USELESS:          0
L1D AVERAGE MISS LATENCY: 43.7017 cycles
L1I TOTAL     ACCESS:  150372957  HIT:  150372957  MISS:          0
L1I LOAD      ACCESS:  150372957  HIT:  150372957  MISS:          0
L1I RFO       ACCESS:          0  HIT:          0  MISS:          0
L1I PREFETCH  ACCESS:          0  HIT:          0  MISS:          0
L1I WRITEBACK ACCESS:          0  HIT:          0  MISS:          0
L1I PREFETCH  REQUESTED:          0  ISSUED:          0  USEFUL:          0  USELESS:          0
L1I AVERAGE MISS LATENCY: -nan cycles
L2C TOTAL     ACCESS:  123900238  HIT:   93255278  MISS:   30644960
L2C LOAD      ACCESS:  106591297  HIT:   79550103  MISS:   27041194
L2C RFO       ACCESS:    8104129  HIT:    4500367  MISS:    3603762
L2C PREFETCH  ACCESS:          0  HIT:          0  MISS:          0
L2C WRITEBACK ACCESS:    9204812  HIT:    9204808  MISS:          4
L2C PREFETCH  REQUESTED:          0  ISSUED:          0  USEFUL:          0  USELESS:          0
L2C AVERAGE MISS LATENCY: 114.801 cycles
LLC TOTAL     ACCESS:   34590692  HIT:   26878961  MISS:    7711731
LLC LOAD      ACCESS:   27033807  HIT:   19326948  MISS:    7706859
LLC RFO       ACCESS:    3443227  HIT:    3441484  MISS:       1743
LLC PREFETCH  ACCESS:          0  HIT:          0  MISS:          0
LLC WRITEBACK ACCESS:    4113658  HIT:    4110529  MISS:       3129
LLC PREFETCH  REQUESTED:          0  ISSUED:          0  USEFUL:          0  USELESS:          0
LLC AVERAGE MISS LATENCY: 295.26 cycles
Major fault: 0 Minor fault: 43201

DRAM Statistics
 CHANNEL 0
 RQ ROW_BUFFER_HIT:    4095303  ROW_BUFFER_MISS:    3613299
 DBUS_CONGESTED:    1015947
 WQ ROW_BUFFER_HIT:     467414  ROW_BUFFER_MISS:     488696  FULL:          0

 AVG_CONGESTED_CYCLE: 6

CPU 0 Branch Prediction Accuracy: 99.8488% MPKI: 0.001793 Average ROB Occupancy at Mispredict: 327.429

Branch types
NOT_BRANCH: 998814105 99.8814%
BRANCH_DIRECT_JUMP: 296912 0.0296912%
BRANCH_INDIRECT: 295123 0.0295123%
BRANCH_CONDITIONAL: 593824 0.0593824%
BRANCH_DIRECT_CALL: 0 0%
BRANCH_INDIRECT_CALL: 0 0%
BRANCH_RETURN: 0 0%
BRANCH_OTHER: 0 0%

