
*** ChampSim Multicore Out-of-Order Simulator ***

Warmup Instructions: 100000000
Simulation Instructions: 1000000000
Number of CPUs: 1
LLC sets: 2048
LLC ways: 16
Off-chip DRAM Size: 4096 MB Channels: 1 Width: 64-bit Data Rate: 3200 MT/s

CPU 0 runs /scratch/user/kevin.weston/dpc3-traces/607.champsimtrace.xz
CPU 0 Bimodal branch predictor
Per-line RRPV Initialized
PRRIP State Initialized
Assign SAMPLER_SET[0]: 454  LLC: 2048
SAMPLER_SET[0]: 454
Assign SAMPLER_SET[1]: 1662  LLC: 2048
SAMPLER_SET[1]: 1662
Assign SAMPLER_SET[2]: 1921  LLC: 2048
SAMPLER_SET[2]: 1921
Assign SAMPLER_SET[3]: 1131  LLC: 2048
SAMPLER_SET[3]: 1131
Assign SAMPLER_SET[4]: 331  LLC: 2048
SAMPLER_SET[4]: 331
Assign SAMPLER_SET[5]: 1531  LLC: 2048
SAMPLER_SET[5]: 1531
Assign SAMPLER_SET[6]: 482  LLC: 2048
SAMPLER_SET[6]: 482
Assign SAMPLER_SET[7]: 1275  LLC: 2048
SAMPLER_SET[7]: 1275
Assign SAMPLER_SET[8]: 1876  LLC: 2048
SAMPLER_SET[8]: 1876
Assign SAMPLER_SET[9]: 2038  LLC: 2048
SAMPLER_SET[9]: 2038
Assign SAMPLER_SET[10]: 701  LLC: 2048
SAMPLER_SET[10]: 701
Assign SAMPLER_SET[11]: 479  LLC: 2048
SAMPLER_SET[11]: 479
Assign SAMPLER_SET[12]: 892  LLC: 2048
SAMPLER_SET[12]: 892
Assign SAMPLER_SET[13]: 1820  LLC: 2048
SAMPLER_SET[13]: 1820
Assign SAMPLER_SET[14]: 1505  LLC: 2048
SAMPLER_SET[14]: 1505
Assign SAMPLER_SET[15]: 1159  LLC: 2048
SAMPLER_SET[15]: 1159
Assign SAMPLER_SET[16]: 513  LLC: 2048
SAMPLER_SET[16]: 513
Assign SAMPLER_SET[17]: 703  LLC: 2048
SAMPLER_SET[17]: 703
Assign SAMPLER_SET[18]: 561  LLC: 2048
SAMPLER_SET[18]: 561
Assign SAMPLER_SET[19]: 990  LLC: 2048
SAMPLER_SET[19]: 990
Assign SAMPLER_SET[20]: 342  LLC: 2048
SAMPLER_SET[20]: 342
Assign SAMPLER_SET[21]: 882  LLC: 2048
SAMPLER_SET[21]: 882
Assign SAMPLER_SET[22]: 15  LLC: 2048
SAMPLER_SET[22]: 15
Assign SAMPLER_SET[23]: 71  LLC: 2048
SAMPLER_SET[23]: 71
Assign SAMPLER_SET[24]: 1127  LLC: 2048
SAMPLER_SET[24]: 1127
Assign SAMPLER_SET[25]: 1382  LLC: 2048
SAMPLER_SET[25]: 1382
Assign SAMPLER_SET[26]: 647  LLC: 2048
SAMPLER_SET[26]: 647
Assign SAMPLER_SET[27]: 857  LLC: 2048
SAMPLER_SET[27]: 857
Assign SAMPLER_SET[28]: 1450  LLC: 2048
SAMPLER_SET[28]: 1450
Assign SAMPLER_SET[29]: 1160  LLC: 2048
SAMPLER_SET[29]: 1160
Assign SAMPLER_SET[30]: 1852  LLC: 2048
SAMPLER_SET[30]: 1852
Assign SAMPLER_SET[31]: 1881  LLC: 2048
SAMPLER_SET[31]: 1881
Assign SAMPLER_SET[32]: 1770  LLC: 2048
SAMPLER_SET[32]: 1770
Assign SAMPLER_SET[33]: 1622  LLC: 2048
SAMPLER_SET[33]: 1622
Assign SAMPLER_SET[34]: 275  LLC: 2048
SAMPLER_SET[34]: 275
Assign SAMPLER_SET[35]: 635  LLC: 2048
SAMPLER_SET[35]: 635
Assign SAMPLER_SET[36]: 466  LLC: 2048
SAMPLER_SET[36]: 466
Assign SAMPLER_SET[37]: 1413  LLC: 2048
SAMPLER_SET[37]: 1413
Assign SAMPLER_SET[38]: 417  LLC: 2048
SAMPLER_SET[38]: 417
Assign SAMPLER_SET[39]: 472  LLC: 2048
SAMPLER_SET[39]: 472
Assign SAMPLER_SET[40]: 1340  LLC: 2048
SAMPLER_SET[40]: 1340
Assign SAMPLER_SET[41]: 852  LLC: 2048
SAMPLER_SET[41]: 852
Assign SAMPLER_SET[42]: 1365  LLC: 2048
SAMPLER_SET[42]: 1365
Assign SAMPLER_SET[43]: 47  LLC: 2048
SAMPLER_SET[43]: 47
Assign SAMPLER_SET[44]: 823  LLC: 2048
SAMPLER_SET[44]: 823
Assign SAMPLER_SET[45]: 686  LLC: 2048
SAMPLER_SET[45]: 686
Assign SAMPLER_SET[46]: 1637  LLC: 2048
SAMPLER_SET[46]: 1637
Assign SAMPLER_SET[47]: 1115  LLC: 2048
SAMPLER_SET[47]: 1115
Assign SAMPLER_SET[48]: 986  LLC: 2048
SAMPLER_SET[48]: 986
Assign SAMPLER_SET[49]: 258  LLC: 2048
SAMPLER_SET[49]: 258
Assign SAMPLER_SET[50]: 633  LLC: 2048
SAMPLER_SET[50]: 633
Assign SAMPLER_SET[51]: 920  LLC: 2048
SAMPLER_SET[51]: 920
Assign SAMPLER_SET[52]: 204  LLC: 2048
SAMPLER_SET[52]: 204
Assign SAMPLER_SET[53]: 227  LLC: 2048
SAMPLER_SET[53]: 227
Assign SAMPLER_SET[54]: 1818  LLC: 2048
SAMPLER_SET[54]: 1818
Assign SAMPLER_SET[55]: 886  LLC: 2048
SAMPLER_SET[55]: 886
Assign SAMPLER_SET[56]: 1422  LLC: 2048
SAMPLER_SET[56]: 1422
Assign SAMPLER_SET[57]: 607  LLC: 2048
SAMPLER_SET[57]: 607
Assign SAMPLER_SET[58]: 217  LLC: 2048
SAMPLER_SET[58]: 217
Assign SAMPLER_SET[59]: 1945  LLC: 2048
SAMPLER_SET[59]: 1945
Assign SAMPLER_SET[60]: 143  LLC: 2048
SAMPLER_SET[60]: 143
Assign SAMPLER_SET[61]: 1311  LLC: 2048
SAMPLER_SET[61]: 1311
Assign SAMPLER_SET[62]: 319  LLC: 2048
SAMPLER_SET[62]: 319
Assign SAMPLER_SET[63]: 1846  LLC: 2048
SAMPLER_SET[63]: 1846
Heartbeat CPU 0 instructions: 10000002 cycles: 4836800 heartbeat IPC: 2.06748 cumulative IPC: 2.06748 (Simulation time: 0 hr 0 min 28 sec) 
Heartbeat CPU 0 instructions: 20000001 cycles: 9669731 heartbeat IPC: 2.06914 cumulative IPC: 2.06831 (Simulation time: 0 hr 0 min 56 sec) 
Heartbeat CPU 0 instructions: 30000002 cycles: 14504661 heartbeat IPC: 2.06828 cumulative IPC: 2.0683 (Simulation time: 0 hr 1 min 24 sec) 
Heartbeat CPU 0 instructions: 40000003 cycles: 19339469 heartbeat IPC: 2.06833 cumulative IPC: 2.06831 (Simulation time: 0 hr 1 min 52 sec) 
Heartbeat CPU 0 instructions: 50000000 cycles: 24175085 heartbeat IPC: 2.06799 cumulative IPC: 2.06825 (Simulation time: 0 hr 2 min 20 sec) 
Heartbeat CPU 0 instructions: 60000000 cycles: 28027383 heartbeat IPC: 2.59585 cumulative IPC: 2.14076 (Simulation time: 0 hr 2 min 44 sec) 
Heartbeat CPU 0 instructions: 70000001 cycles: 31641041 heartbeat IPC: 2.76728 cumulative IPC: 2.21232 (Simulation time: 0 hr 3 min 8 sec) 
Heartbeat CPU 0 instructions: 80000003 cycles: 35252861 heartbeat IPC: 2.76869 cumulative IPC: 2.26932 (Simulation time: 0 hr 3 min 31 sec) 
Heartbeat CPU 0 instructions: 90000001 cycles: 38865165 heartbeat IPC: 2.76832 cumulative IPC: 2.3157 (Simulation time: 0 hr 3 min 55 sec) 
Heartbeat CPU 0 instructions: 100000001 cycles: 42478213 heartbeat IPC: 2.76775 cumulative IPC: 2.35415 (Simulation time: 0 hr 4 min 18 sec) 

Warmup complete CPU 0 instructions: 100000001 cycles: 42478213 (Simulation time: 0 hr 4 min 18 sec) 

Heartbeat CPU 0 instructions: 110000000 cycles: 52069521 heartbeat IPC: 1.04261 cumulative IPC: 1.04261 (Simulation time: 0 hr 4 min 46 sec) 
Heartbeat CPU 0 instructions: 120000000 cycles: 61591162 heartbeat IPC: 1.05024 cumulative IPC: 1.04641 (Simulation time: 0 hr 5 min 14 sec) 
Heartbeat CPU 0 instructions: 130000002 cycles: 71171306 heartbeat IPC: 1.04383 cumulative IPC: 1.04555 (Simulation time: 0 hr 5 min 43 sec) 
Heartbeat CPU 0 instructions: 140000002 cycles: 80631340 heartbeat IPC: 1.05708 cumulative IPC: 1.04841 (Simulation time: 0 hr 6 min 11 sec) 
Heartbeat CPU 0 instructions: 150000003 cycles: 90599444 heartbeat IPC: 1.0032 cumulative IPC: 1.03904 (Simulation time: 0 hr 6 min 40 sec) 
Heartbeat CPU 0 instructions: 160000002 cycles: 100069234 heartbeat IPC: 1.05599 cumulative IPC: 1.04183 (Simulation time: 0 hr 7 min 8 sec) 
Heartbeat CPU 0 instructions: 170000002 cycles: 109650917 heartbeat IPC: 1.04366 cumulative IPC: 1.04209 (Simulation time: 0 hr 7 min 36 sec) 
Heartbeat CPU 0 instructions: 180000001 cycles: 119144441 heartbeat IPC: 1.05335 cumulative IPC: 1.04348 (Simulation time: 0 hr 8 min 4 sec) 
Heartbeat CPU 0 instructions: 190000000 cycles: 128630885 heartbeat IPC: 1.05414 cumulative IPC: 1.04466 (Simulation time: 0 hr 8 min 33 sec) 
Heartbeat CPU 0 instructions: 200000003 cycles: 138134520 heartbeat IPC: 1.05223 cumulative IPC: 1.04541 (Simulation time: 0 hr 9 min 1 sec) 
Heartbeat CPU 0 instructions: 210000001 cycles: 147611859 heartbeat IPC: 1.05515 cumulative IPC: 1.04629 (Simulation time: 0 hr 9 min 29 sec) 
Heartbeat CPU 0 instructions: 220000000 cycles: 157156313 heartbeat IPC: 1.04773 cumulative IPC: 1.04641 (Simulation time: 0 hr 9 min 57 sec) 
Heartbeat CPU 0 instructions: 230000003 cycles: 166704538 heartbeat IPC: 1.04732 cumulative IPC: 1.04648 (Simulation time: 0 hr 10 min 26 sec) 
Heartbeat CPU 0 instructions: 240000000 cycles: 176356028 heartbeat IPC: 1.03611 cumulative IPC: 1.04573 (Simulation time: 0 hr 10 min 54 sec) 
Heartbeat CPU 0 instructions: 250000002 cycles: 185977852 heartbeat IPC: 1.0393 cumulative IPC: 1.0453 (Simulation time: 0 hr 11 min 23 sec) 
Heartbeat CPU 0 instructions: 260000001 cycles: 195622182 heartbeat IPC: 1.03688 cumulative IPC: 1.04477 (Simulation time: 0 hr 11 min 51 sec) 
Heartbeat CPU 0 instructions: 270000002 cycles: 205263437 heartbeat IPC: 1.03721 cumulative IPC: 1.04432 (Simulation time: 0 hr 12 min 20 sec) 
Heartbeat CPU 0 instructions: 280000000 cycles: 214874101 heartbeat IPC: 1.04051 cumulative IPC: 1.04411 (Simulation time: 0 hr 12 min 48 sec) 
Heartbeat CPU 0 instructions: 290000000 cycles: 224478830 heartbeat IPC: 1.04115 cumulative IPC: 1.04395 (Simulation time: 0 hr 13 min 16 sec) 
Heartbeat CPU 0 instructions: 300000001 cycles: 234073227 heartbeat IPC: 1.04228 cumulative IPC: 1.04387 (Simulation time: 0 hr 13 min 45 sec) 
Heartbeat CPU 0 instructions: 310000000 cycles: 243671870 heartbeat IPC: 1.04181 cumulative IPC: 1.04377 (Simulation time: 0 hr 14 min 13 sec) 
Heartbeat CPU 0 instructions: 320000002 cycles: 253317274 heartbeat IPC: 1.03676 cumulative IPC: 1.04345 (Simulation time: 0 hr 14 min 42 sec) 
Heartbeat CPU 0 instructions: 330000000 cycles: 263016500 heartbeat IPC: 1.03101 cumulative IPC: 1.0429 (Simulation time: 0 hr 15 min 10 sec) 
Heartbeat CPU 0 instructions: 340000003 cycles: 272773855 heartbeat IPC: 1.02487 cumulative IPC: 1.04214 (Simulation time: 0 hr 15 min 38 sec) 
Heartbeat CPU 0 instructions: 350000003 cycles: 282490740 heartbeat IPC: 1.02914 cumulative IPC: 1.04161 (Simulation time: 0 hr 16 min 7 sec) 
Heartbeat CPU 0 instructions: 360000003 cycles: 292135206 heartbeat IPC: 1.03686 cumulative IPC: 1.04143 (Simulation time: 0 hr 16 min 35 sec) 
Heartbeat CPU 0 instructions: 370000003 cycles: 301697894 heartbeat IPC: 1.04573 cumulative IPC: 1.04159 (Simulation time: 0 hr 17 min 4 sec) 
Heartbeat CPU 0 instructions: 380000002 cycles: 311388044 heartbeat IPC: 1.03198 cumulative IPC: 1.04124 (Simulation time: 0 hr 17 min 32 sec) 
Heartbeat CPU 0 instructions: 390000003 cycles: 321067079 heartbeat IPC: 1.03316 cumulative IPC: 1.04096 (Simulation time: 0 hr 18 min 1 sec) 
Heartbeat CPU 0 instructions: 400000000 cycles: 330743071 heartbeat IPC: 1.03349 cumulative IPC: 1.04071 (Simulation time: 0 hr 18 min 29 sec) 
Heartbeat CPU 0 instructions: 410000002 cycles: 340271214 heartbeat IPC: 1.04952 cumulative IPC: 1.04099 (Simulation time: 0 hr 18 min 57 sec) 
Heartbeat CPU 0 instructions: 420000001 cycles: 349859871 heartbeat IPC: 1.0429 cumulative IPC: 1.04105 (Simulation time: 0 hr 19 min 26 sec) 
Heartbeat CPU 0 instructions: 430000001 cycles: 359675582 heartbeat IPC: 1.01877 cumulative IPC: 1.04036 (Simulation time: 0 hr 19 min 54 sec) 
Heartbeat CPU 0 instructions: 440000000 cycles: 369176601 heartbeat IPC: 1.05252 cumulative IPC: 1.04072 (Simulation time: 0 hr 20 min 23 sec) 
Heartbeat CPU 0 instructions: 450000001 cycles: 378649647 heartbeat IPC: 1.05563 cumulative IPC: 1.04114 (Simulation time: 0 hr 20 min 51 sec) 
Heartbeat CPU 0 instructions: 460000001 cycles: 388210165 heartbeat IPC: 1.04597 cumulative IPC: 1.04127 (Simulation time: 0 hr 21 min 19 sec) 
Heartbeat CPU 0 instructions: 470000002 cycles: 397743717 heartbeat IPC: 1.04893 cumulative IPC: 1.04147 (Simulation time: 0 hr 21 min 48 sec) 
Heartbeat CPU 0 instructions: 480000003 cycles: 407379109 heartbeat IPC: 1.03784 cumulative IPC: 1.04138 (Simulation time: 0 hr 22 min 17 sec) 
Heartbeat CPU 0 instructions: 490000001 cycles: 416912769 heartbeat IPC: 1.04891 cumulative IPC: 1.04157 (Simulation time: 0 hr 22 min 45 sec) 
Heartbeat CPU 0 instructions: 500000003 cycles: 426505507 heartbeat IPC: 1.04246 cumulative IPC: 1.04159 (Simulation time: 0 hr 23 min 13 sec) 
Heartbeat CPU 0 instructions: 510000000 cycles: 436006445 heartbeat IPC: 1.05253 cumulative IPC: 1.04186 (Simulation time: 0 hr 23 min 42 sec) 
Heartbeat CPU 0 instructions: 520000001 cycles: 445585721 heartbeat IPC: 1.04392 cumulative IPC: 1.04191 (Simulation time: 0 hr 24 min 10 sec) 
Heartbeat CPU 0 instructions: 530000000 cycles: 455232397 heartbeat IPC: 1.03663 cumulative IPC: 1.04178 (Simulation time: 0 hr 24 min 39 sec) 
Heartbeat CPU 0 instructions: 540000001 cycles: 464837490 heartbeat IPC: 1.04111 cumulative IPC: 1.04177 (Simulation time: 0 hr 25 min 7 sec) 
Heartbeat CPU 0 instructions: 550000000 cycles: 474341370 heartbeat IPC: 1.0522 cumulative IPC: 1.042 (Simulation time: 0 hr 25 min 35 sec) 
Heartbeat CPU 0 instructions: 560000002 cycles: 483752735 heartbeat IPC: 1.06255 cumulative IPC: 1.04243 (Simulation time: 0 hr 26 min 4 sec) 
Heartbeat CPU 0 instructions: 570000003 cycles: 493271001 heartbeat IPC: 1.05061 cumulative IPC: 1.04261 (Simulation time: 0 hr 26 min 32 sec) 
Heartbeat CPU 0 instructions: 580000001 cycles: 502682841 heartbeat IPC: 1.06249 cumulative IPC: 1.04301 (Simulation time: 0 hr 27 min 0 sec) 
Heartbeat CPU 0 instructions: 590000003 cycles: 512179660 heartbeat IPC: 1.05298 cumulative IPC: 1.04322 (Simulation time: 0 hr 27 min 28 sec) 
Heartbeat CPU 0 instructions: 600000000 cycles: 521682516 heartbeat IPC: 1.05231 cumulative IPC: 1.0434 (Simulation time: 0 hr 27 min 57 sec) 
Heartbeat CPU 0 instructions: 610000001 cycles: 531130718 heartbeat IPC: 1.0584 cumulative IPC: 1.04369 (Simulation time: 0 hr 28 min 25 sec) 
Heartbeat CPU 0 instructions: 620000002 cycles: 540798782 heartbeat IPC: 1.03433 cumulative IPC: 1.0435 (Simulation time: 0 hr 28 min 53 sec) 
Heartbeat CPU 0 instructions: 630000001 cycles: 550364539 heartbeat IPC: 1.0454 cumulative IPC: 1.04354 (Simulation time: 0 hr 29 min 21 sec) 
Heartbeat CPU 0 instructions: 640000002 cycles: 559922235 heartbeat IPC: 1.04628 cumulative IPC: 1.04359 (Simulation time: 0 hr 29 min 50 sec) 
Heartbeat CPU 0 instructions: 650000001 cycles: 569483021 heartbeat IPC: 1.04594 cumulative IPC: 1.04363 (Simulation time: 0 hr 30 min 18 sec) 
Heartbeat CPU 0 instructions: 660000000 cycles: 579010231 heartbeat IPC: 1.04963 cumulative IPC: 1.04374 (Simulation time: 0 hr 30 min 46 sec) 
Heartbeat CPU 0 instructions: 670000003 cycles: 588602384 heartbeat IPC: 1.04252 cumulative IPC: 1.04372 (Simulation time: 0 hr 31 min 14 sec) 
Heartbeat CPU 0 instructions: 680000001 cycles: 598118970 heartbeat IPC: 1.0508 cumulative IPC: 1.04384 (Simulation time: 0 hr 31 min 42 sec) 
Heartbeat CPU 0 instructions: 690000002 cycles: 607711507 heartbeat IPC: 1.04248 cumulative IPC: 1.04382 (Simulation time: 0 hr 32 min 10 sec) 
Heartbeat CPU 0 instructions: 700000003 cycles: 617212505 heartbeat IPC: 1.05252 cumulative IPC: 1.04396 (Simulation time: 0 hr 32 min 38 sec) 
Heartbeat CPU 0 instructions: 710000003 cycles: 626817291 heartbeat IPC: 1.04115 cumulative IPC: 1.04391 (Simulation time: 0 hr 33 min 7 sec) 
Heartbeat CPU 0 instructions: 720000000 cycles: 636335450 heartbeat IPC: 1.05062 cumulative IPC: 1.04402 (Simulation time: 0 hr 33 min 35 sec) 
Heartbeat CPU 0 instructions: 730000003 cycles: 645884636 heartbeat IPC: 1.04721 cumulative IPC: 1.04407 (Simulation time: 0 hr 34 min 3 sec) 
Heartbeat CPU 0 instructions: 740000003 cycles: 655536725 heartbeat IPC: 1.03605 cumulative IPC: 1.04395 (Simulation time: 0 hr 34 min 31 sec) 
Heartbeat CPU 0 instructions: 750000001 cycles: 665048291 heartbeat IPC: 1.05135 cumulative IPC: 1.04406 (Simulation time: 0 hr 35 min 0 sec) 
Heartbeat CPU 0 instructions: 760000003 cycles: 674634096 heartbeat IPC: 1.04321 cumulative IPC: 1.04405 (Simulation time: 0 hr 35 min 29 sec) 
Heartbeat CPU 0 instructions: 770000000 cycles: 684150000 heartbeat IPC: 1.05087 cumulative IPC: 1.04415 (Simulation time: 0 hr 35 min 57 sec) 
Heartbeat CPU 0 instructions: 780000000 cycles: 693744898 heartbeat IPC: 1.04222 cumulative IPC: 1.04412 (Simulation time: 0 hr 36 min 26 sec) 
Heartbeat CPU 0 instructions: 790000000 cycles: 703197272 heartbeat IPC: 1.05794 cumulative IPC: 1.04432 (Simulation time: 0 hr 36 min 54 sec) 
Heartbeat CPU 0 instructions: 800000003 cycles: 712999916 heartbeat IPC: 1.02013 cumulative IPC: 1.04396 (Simulation time: 0 hr 37 min 23 sec) 
Heartbeat CPU 0 instructions: 810000001 cycles: 722516225 heartbeat IPC: 1.05083 cumulative IPC: 1.04406 (Simulation time: 0 hr 37 min 52 sec) 
Heartbeat CPU 0 instructions: 820000000 cycles: 731929357 heartbeat IPC: 1.06235 cumulative IPC: 1.04431 (Simulation time: 0 hr 38 min 20 sec) 
Heartbeat CPU 0 instructions: 830000003 cycles: 741413599 heartbeat IPC: 1.05438 cumulative IPC: 1.04445 (Simulation time: 0 hr 38 min 49 sec) 
Heartbeat CPU 0 instructions: 840000000 cycles: 750916125 heartbeat IPC: 1.05235 cumulative IPC: 1.04455 (Simulation time: 0 hr 39 min 17 sec) 
Heartbeat CPU 0 instructions: 850000001 cycles: 760570449 heartbeat IPC: 1.03581 cumulative IPC: 1.04443 (Simulation time: 0 hr 39 min 45 sec) 
Heartbeat CPU 0 instructions: 860000000 cycles: 770245966 heartbeat IPC: 1.03354 cumulative IPC: 1.04429 (Simulation time: 0 hr 40 min 14 sec) 
Heartbeat CPU 0 instructions: 870000001 cycles: 779765752 heartbeat IPC: 1.05044 cumulative IPC: 1.04437 (Simulation time: 0 hr 40 min 42 sec) 
Heartbeat CPU 0 instructions: 880000000 cycles: 789269307 heartbeat IPC: 1.05224 cumulative IPC: 1.04447 (Simulation time: 0 hr 41 min 11 sec) 
Heartbeat CPU 0 instructions: 890000001 cycles: 798857091 heartbeat IPC: 1.04299 cumulative IPC: 1.04445 (Simulation time: 0 hr 41 min 39 sec) 
Heartbeat CPU 0 instructions: 900000002 cycles: 808566884 heartbeat IPC: 1.02989 cumulative IPC: 1.04427 (Simulation time: 0 hr 42 min 8 sec) 
Heartbeat CPU 0 instructions: 910000000 cycles: 818184011 heartbeat IPC: 1.03981 cumulative IPC: 1.04421 (Simulation time: 0 hr 42 min 36 sec) 
Heartbeat CPU 0 instructions: 920000003 cycles: 827834760 heartbeat IPC: 1.03619 cumulative IPC: 1.04411 (Simulation time: 0 hr 43 min 5 sec) 
Heartbeat CPU 0 instructions: 930000002 cycles: 837417609 heartbeat IPC: 1.04353 cumulative IPC: 1.0441 (Simulation time: 0 hr 43 min 33 sec) 
Heartbeat CPU 0 instructions: 940000002 cycles: 847098265 heartbeat IPC: 1.03299 cumulative IPC: 1.04397 (Simulation time: 0 hr 44 min 2 sec) 
Heartbeat CPU 0 instructions: 950000000 cycles: 856665565 heartbeat IPC: 1.04523 cumulative IPC: 1.04399 (Simulation time: 0 hr 44 min 30 sec) 
Heartbeat CPU 0 instructions: 960000003 cycles: 866161592 heartbeat IPC: 1.05307 cumulative IPC: 1.04409 (Simulation time: 0 hr 44 min 58 sec) 
Heartbeat CPU 0 instructions: 970000002 cycles: 875560873 heartbeat IPC: 1.06391 cumulative IPC: 1.04431 (Simulation time: 0 hr 45 min 27 sec) 
Heartbeat CPU 0 instructions: 980000000 cycles: 884987749 heartbeat IPC: 1.0608 cumulative IPC: 1.0445 (Simulation time: 0 hr 45 min 55 sec) 
Heartbeat CPU 0 instructions: 990000000 cycles: 894610739 heartbeat IPC: 1.03918 cumulative IPC: 1.04444 (Simulation time: 0 hr 46 min 24 sec) 
Heartbeat CPU 0 instructions: 1000000000 cycles: 904168095 heartbeat IPC: 1.04631 cumulative IPC: 1.04446 (Simulation time: 0 hr 46 min 52 sec) 
Heartbeat CPU 0 instructions: 1010000003 cycles: 913645200 heartbeat IPC: 1.05517 cumulative IPC: 1.04458 (Simulation time: 0 hr 47 min 21 sec) 
Heartbeat CPU 0 instructions: 1020000001 cycles: 923016996 heartbeat IPC: 1.06703 cumulative IPC: 1.04481 (Simulation time: 0 hr 47 min 49 sec) 
Heartbeat CPU 0 instructions: 1030000003 cycles: 932564602 heartbeat IPC: 1.04738 cumulative IPC: 1.04484 (Simulation time: 0 hr 48 min 17 sec) 
Heartbeat CPU 0 instructions: 1040000002 cycles: 941985878 heartbeat IPC: 1.06143 cumulative IPC: 1.04502 (Simulation time: 0 hr 48 min 46 sec) 
Heartbeat CPU 0 instructions: 1050000003 cycles: 951532823 heartbeat IPC: 1.04746 cumulative IPC: 1.04504 (Simulation time: 0 hr 49 min 14 sec) 
Heartbeat CPU 0 instructions: 1060000001 cycles: 961084452 heartbeat IPC: 1.04694 cumulative IPC: 1.04506 (Simulation time: 0 hr 49 min 43 sec) 
Heartbeat CPU 0 instructions: 1070000001 cycles: 970532791 heartbeat IPC: 1.05839 cumulative IPC: 1.0452 (Simulation time: 0 hr 50 min 11 sec) 
Heartbeat CPU 0 instructions: 1080000000 cycles: 980137607 heartbeat IPC: 1.04114 cumulative IPC: 1.04516 (Simulation time: 0 hr 50 min 39 sec) 
Heartbeat CPU 0 instructions: 1090000000 cycles: 989685740 heartbeat IPC: 1.04733 cumulative IPC: 1.04518 (Simulation time: 0 hr 51 min 8 sec) 
Heartbeat CPU 0 instructions: 1100000000 cycles: 999098543 heartbeat IPC: 1.06238 cumulative IPC: 1.04535 (Simulation time: 0 hr 51 min 36 sec) 
Finished CPU 0 instructions: 1000000000 cycles: 956620331 cumulative IPC: 1.04535 (Simulation time: 0 hr 51 min 36 sec) 

ChampSim completed all CPUs

Region of Interest Statistics

CPU 0 cumulative IPC: 1.04535 instructions: 1000000000 cycles: 956620331
L1D TOTAL     ACCESS:  287534961  HIT:  171811811  MISS:  115723150
L1D LOAD      ACCESS:  174683926  HIT:   67066945  MISS:  107616981
L1D RFO       ACCESS:  112851035  HIT:  104744866  MISS:    8106169
L1D PREFETCH  ACCESS:          0  HIT:          0  MISS:          0
L1D WRITEBACK ACCESS:          0  HIT:          0  MISS:          0
L1D PREFETCH  REQUESTED:          0  ISSUED:          0  USEFUL:          0  USELESS:          0
L1D AVERAGE MISS LATENCY: 44.1281 cycles
L1I TOTAL     ACCESS:  150388366  HIT:  150388366  MISS:          0
L1I LOAD      ACCESS:  150388366  HIT:  150388366  MISS:          0
L1I RFO       ACCESS:          0  HIT:          0  MISS:          0
L1I PREFETCH  ACCESS:          0  HIT:          0  MISS:          0
L1I WRITEBACK ACCESS:          0  HIT:          0  MISS:          0
L1I PREFETCH  REQUESTED:          0  ISSUED:          0  USEFUL:          0  USELESS:          0
L1I AVERAGE MISS LATENCY: -nan cycles
L2C TOTAL     ACCESS:  123896123  HIT:   93207988  MISS:   30688135
L2C LOAD      ACCESS:  106594700  HIT:   79507138  MISS:   27087562
L2C RFO       ACCESS:    8099926  HIT:    4499355  MISS:    3600571
L2C PREFETCH  ACCESS:          0  HIT:          0  MISS:          0
L2C WRITEBACK ACCESS:    9201497  HIT:    9201495  MISS:          2
L2C PREFETCH  REQUESTED:          0  ISSUED:          0  USEFUL:          0  USELESS:          0
L2C AVERAGE MISS LATENCY: 116.244 cycles
LLC TOTAL     ACCESS:   34631898  HIT:   26875161  MISS:    7756737
LLC LOAD      ACCESS:   27079867  HIT:   19340791  MISS:    7739076
LLC RFO       ACCESS:    3437995  HIT:    3430969  MISS:       7026
LLC PREFETCH  ACCESS:          0  HIT:          0  MISS:          0
LLC WRITEBACK ACCESS:    4114036  HIT:    4103401  MISS:      10635
LLC PREFETCH  REQUESTED:          0  ISSUED:          0  USEFUL:          0  USELESS:          0
LLC AVERAGE MISS LATENCY: 299.667 cycles
Major fault: 0 Minor fault: 43201
==============================
Perceptron RRIP Stats:
   Num Updates:          1006080
   Num Primary Trains:   11699
   Num Secondary Trains: 13751
==============================
primary_perceptron #0: -3 9 5 -7 1 -5 -11 -7 3 19 7 7 -1 1 3 -15 
secondary_perceptron #0: -3 15 9 -15 3 -3 -13 -9 3 25 9 9 -1 -1 9 1 1 3 1 -1 -21 


DRAM Statistics
 CHANNEL 0
 RQ ROW_BUFFER_HIT:    3936413  ROW_BUFFER_MISS:    3809679
 DBUS_CONGESTED:    1064098
 WQ ROW_BUFFER_HIT:     534694  ROW_BUFFER_MISS:     419762  FULL:          0

 AVG_CONGESTED_CYCLE: 6

CPU 0 Branch Prediction Accuracy: 99.8488% MPKI: 0.001793 Average ROB Occupancy at Mispredict: 327.492

Branch types
NOT_BRANCH: 998814105 99.8814%
BRANCH_DIRECT_JUMP: 296912 0.0296912%
BRANCH_INDIRECT: 295123 0.0295123%
BRANCH_CONDITIONAL: 593824 0.0593824%
BRANCH_DIRECT_CALL: 0 0%
BRANCH_INDIRECT_CALL: 0 0%
BRANCH_RETURN: 0 0%
BRANCH_OTHER: 0 0%

