
*** ChampSim Multicore Out-of-Order Simulator ***

Warmup Instructions: 100000000
Simulation Instructions: 1000000000
Number of CPUs: 1
LLC sets: 2048
LLC ways: 16
Off-chip DRAM Size: 4096 MB Channels: 1 Width: 64-bit Data Rate: 3200 MT/s

CPU 0 runs /scratch/user/kevin.weston/dpc3-traces/607.champsimtrace.xz
CPU 0 Bimodal branch predictor
Initialize SRRIP state
Heartbeat CPU 0 instructions: 10000002 cycles: 4836767 heartbeat IPC: 2.0675 cumulative IPC: 2.0675 (Simulation time: 0 hr 0 min 28 sec) 
Heartbeat CPU 0 instructions: 20000001 cycles: 9669682 heartbeat IPC: 2.06914 cumulative IPC: 2.06832 (Simulation time: 0 hr 0 min 56 sec) 
Heartbeat CPU 0 instructions: 30000002 cycles: 14504456 heartbeat IPC: 2.06835 cumulative IPC: 2.06833 (Simulation time: 0 hr 1 min 24 sec) 
Heartbeat CPU 0 instructions: 40000003 cycles: 19339292 heartbeat IPC: 2.06832 cumulative IPC: 2.06833 (Simulation time: 0 hr 1 min 52 sec) 
Heartbeat CPU 0 instructions: 50000000 cycles: 24174848 heartbeat IPC: 2.06801 cumulative IPC: 2.06827 (Simulation time: 0 hr 2 min 20 sec) 
Heartbeat CPU 0 instructions: 60000000 cycles: 28026547 heartbeat IPC: 2.59626 cumulative IPC: 2.14083 (Simulation time: 0 hr 2 min 44 sec) 
Heartbeat CPU 0 instructions: 70000001 cycles: 31640172 heartbeat IPC: 2.7673 cumulative IPC: 2.21238 (Simulation time: 0 hr 3 min 7 sec) 
Heartbeat CPU 0 instructions: 80000003 cycles: 35251703 heartbeat IPC: 2.76891 cumulative IPC: 2.26939 (Simulation time: 0 hr 3 min 31 sec) 
Heartbeat CPU 0 instructions: 90000001 cycles: 38863988 heartbeat IPC: 2.76833 cumulative IPC: 2.31577 (Simulation time: 0 hr 3 min 54 sec) 
Heartbeat CPU 0 instructions: 100000001 cycles: 42477366 heartbeat IPC: 2.76749 cumulative IPC: 2.35419 (Simulation time: 0 hr 4 min 18 sec) 

Warmup complete CPU 0 instructions: 100000001 cycles: 42477366 (Simulation time: 0 hr 4 min 18 sec) 

Heartbeat CPU 0 instructions: 110000000 cycles: 52070484 heartbeat IPC: 1.04241 cumulative IPC: 1.04241 (Simulation time: 0 hr 4 min 46 sec) 
Heartbeat CPU 0 instructions: 120000000 cycles: 61616381 heartbeat IPC: 1.04757 cumulative IPC: 1.04499 (Simulation time: 0 hr 5 min 13 sec) 
Heartbeat CPU 0 instructions: 130000002 cycles: 71246661 heartbeat IPC: 1.03839 cumulative IPC: 1.04278 (Simulation time: 0 hr 5 min 42 sec) 
Heartbeat CPU 0 instructions: 140000002 cycles: 80862896 heartbeat IPC: 1.03991 cumulative IPC: 1.04206 (Simulation time: 0 hr 6 min 10 sec) 
Heartbeat CPU 0 instructions: 150000003 cycles: 90544629 heartbeat IPC: 1.03287 cumulative IPC: 1.04021 (Simulation time: 0 hr 6 min 38 sec) 
Heartbeat CPU 0 instructions: 160000002 cycles: 100131645 heartbeat IPC: 1.04308 cumulative IPC: 1.04069 (Simulation time: 0 hr 7 min 6 sec) 
Heartbeat CPU 0 instructions: 170000002 cycles: 109682992 heartbeat IPC: 1.04697 cumulative IPC: 1.04158 (Simulation time: 0 hr 7 min 34 sec) 
Heartbeat CPU 0 instructions: 180000001 cycles: 119288716 heartbeat IPC: 1.04105 cumulative IPC: 1.04151 (Simulation time: 0 hr 8 min 2 sec) 
Heartbeat CPU 0 instructions: 190000000 cycles: 128810950 heartbeat IPC: 1.05017 cumulative IPC: 1.04247 (Simulation time: 0 hr 8 min 29 sec) 
Heartbeat CPU 0 instructions: 200000003 cycles: 138371165 heartbeat IPC: 1.046 cumulative IPC: 1.04282 (Simulation time: 0 hr 8 min 57 sec) 
Heartbeat CPU 0 instructions: 210000001 cycles: 147935412 heartbeat IPC: 1.04556 cumulative IPC: 1.04307 (Simulation time: 0 hr 9 min 26 sec) 
Heartbeat CPU 0 instructions: 220000000 cycles: 157537530 heartbeat IPC: 1.04144 cumulative IPC: 1.04293 (Simulation time: 0 hr 9 min 54 sec) 
Heartbeat CPU 0 instructions: 230000003 cycles: 167149213 heartbeat IPC: 1.0404 cumulative IPC: 1.04274 (Simulation time: 0 hr 10 min 22 sec) 
Heartbeat CPU 0 instructions: 240000000 cycles: 176859789 heartbeat IPC: 1.0298 cumulative IPC: 1.0418 (Simulation time: 0 hr 10 min 50 sec) 
Heartbeat CPU 0 instructions: 250000002 cycles: 186491362 heartbeat IPC: 1.03825 cumulative IPC: 1.04157 (Simulation time: 0 hr 11 min 18 sec) 
Heartbeat CPU 0 instructions: 260000001 cycles: 196090225 heartbeat IPC: 1.04179 cumulative IPC: 1.04158 (Simulation time: 0 hr 11 min 46 sec) 
Heartbeat CPU 0 instructions: 270000000 cycles: 205696746 heartbeat IPC: 1.04096 cumulative IPC: 1.04154 (Simulation time: 0 hr 12 min 14 sec) 
Heartbeat CPU 0 instructions: 280000000 cycles: 215298046 heartbeat IPC: 1.04153 cumulative IPC: 1.04154 (Simulation time: 0 hr 12 min 42 sec) 
Heartbeat CPU 0 instructions: 290000000 cycles: 224909834 heartbeat IPC: 1.04039 cumulative IPC: 1.04148 (Simulation time: 0 hr 13 min 10 sec) 
Heartbeat CPU 0 instructions: 300000001 cycles: 234554231 heartbeat IPC: 1.03687 cumulative IPC: 1.04125 (Simulation time: 0 hr 13 min 38 sec) 
Heartbeat CPU 0 instructions: 310000001 cycles: 244209200 heartbeat IPC: 1.03574 cumulative IPC: 1.04099 (Simulation time: 0 hr 14 min 7 sec) 
Heartbeat CPU 0 instructions: 320000002 cycles: 253845945 heartbeat IPC: 1.03769 cumulative IPC: 1.04084 (Simulation time: 0 hr 14 min 35 sec) 
Heartbeat CPU 0 instructions: 330000000 cycles: 263491143 heartbeat IPC: 1.03679 cumulative IPC: 1.04066 (Simulation time: 0 hr 15 min 3 sec) 
Heartbeat CPU 0 instructions: 340000003 cycles: 273285581 heartbeat IPC: 1.02099 cumulative IPC: 1.03982 (Simulation time: 0 hr 15 min 31 sec) 
Heartbeat CPU 0 instructions: 350000000 cycles: 282886091 heartbeat IPC: 1.04161 cumulative IPC: 1.0399 (Simulation time: 0 hr 15 min 59 sec) 
Heartbeat CPU 0 instructions: 360000003 cycles: 292485366 heartbeat IPC: 1.04175 cumulative IPC: 1.03997 (Simulation time: 0 hr 16 min 27 sec) 
Heartbeat CPU 0 instructions: 370000003 cycles: 302135708 heartbeat IPC: 1.03623 cumulative IPC: 1.03983 (Simulation time: 0 hr 16 min 55 sec) 
Heartbeat CPU 0 instructions: 380000002 cycles: 311805482 heartbeat IPC: 1.03415 cumulative IPC: 1.03962 (Simulation time: 0 hr 17 min 24 sec) 
Heartbeat CPU 0 instructions: 390000003 cycles: 321392934 heartbeat IPC: 1.04303 cumulative IPC: 1.03974 (Simulation time: 0 hr 17 min 52 sec) 
Heartbeat CPU 0 instructions: 400000000 cycles: 330990216 heartbeat IPC: 1.04196 cumulative IPC: 1.03982 (Simulation time: 0 hr 18 min 20 sec) 
Heartbeat CPU 0 instructions: 410000002 cycles: 340657234 heartbeat IPC: 1.03445 cumulative IPC: 1.03964 (Simulation time: 0 hr 18 min 48 sec) 
Heartbeat CPU 0 instructions: 420000001 cycles: 350372515 heartbeat IPC: 1.02931 cumulative IPC: 1.03931 (Simulation time: 0 hr 19 min 16 sec) 
Heartbeat CPU 0 instructions: 430000001 cycles: 360131433 heartbeat IPC: 1.0247 cumulative IPC: 1.03887 (Simulation time: 0 hr 19 min 44 sec) 
Heartbeat CPU 0 instructions: 440000000 cycles: 369795021 heartbeat IPC: 1.03481 cumulative IPC: 1.03875 (Simulation time: 0 hr 20 min 13 sec) 
Heartbeat CPU 0 instructions: 450000001 cycles: 379451140 heartbeat IPC: 1.03561 cumulative IPC: 1.03866 (Simulation time: 0 hr 20 min 41 sec) 
Heartbeat CPU 0 instructions: 460000001 cycles: 389141293 heartbeat IPC: 1.03198 cumulative IPC: 1.03847 (Simulation time: 0 hr 21 min 9 sec) 
Heartbeat CPU 0 instructions: 470000002 cycles: 398766864 heartbeat IPC: 1.0389 cumulative IPC: 1.03848 (Simulation time: 0 hr 21 min 37 sec) 
Heartbeat CPU 0 instructions: 480000003 cycles: 408421258 heartbeat IPC: 1.0358 cumulative IPC: 1.03841 (Simulation time: 0 hr 22 min 5 sec) 
Heartbeat CPU 0 instructions: 490000001 cycles: 418096980 heartbeat IPC: 1.03351 cumulative IPC: 1.03828 (Simulation time: 0 hr 22 min 33 sec) 
Heartbeat CPU 0 instructions: 500000003 cycles: 427743563 heartbeat IPC: 1.03664 cumulative IPC: 1.03824 (Simulation time: 0 hr 23 min 2 sec) 
Heartbeat CPU 0 instructions: 510000000 cycles: 437359794 heartbeat IPC: 1.03991 cumulative IPC: 1.03828 (Simulation time: 0 hr 23 min 30 sec) 
Heartbeat CPU 0 instructions: 520000001 cycles: 447059340 heartbeat IPC: 1.03098 cumulative IPC: 1.03811 (Simulation time: 0 hr 23 min 58 sec) 
Heartbeat CPU 0 instructions: 530000000 cycles: 456678710 heartbeat IPC: 1.03957 cumulative IPC: 1.03814 (Simulation time: 0 hr 24 min 26 sec) 
Heartbeat CPU 0 instructions: 540000001 cycles: 466269553 heartbeat IPC: 1.04266 cumulative IPC: 1.03824 (Simulation time: 0 hr 24 min 54 sec) 
Heartbeat CPU 0 instructions: 550000000 cycles: 475961887 heartbeat IPC: 1.03174 cumulative IPC: 1.0381 (Simulation time: 0 hr 25 min 23 sec) 
Heartbeat CPU 0 instructions: 560000002 cycles: 485543697 heartbeat IPC: 1.04364 cumulative IPC: 1.03822 (Simulation time: 0 hr 25 min 51 sec) 
Heartbeat CPU 0 instructions: 570000003 cycles: 495149389 heartbeat IPC: 1.04105 cumulative IPC: 1.03828 (Simulation time: 0 hr 26 min 19 sec) 
Heartbeat CPU 0 instructions: 580000001 cycles: 504800015 heartbeat IPC: 1.0362 cumulative IPC: 1.03824 (Simulation time: 0 hr 26 min 47 sec) 
Heartbeat CPU 0 instructions: 590000003 cycles: 514491161 heartbeat IPC: 1.03187 cumulative IPC: 1.03811 (Simulation time: 0 hr 27 min 16 sec) 
Heartbeat CPU 0 instructions: 600000000 cycles: 524116038 heartbeat IPC: 1.03897 cumulative IPC: 1.03812 (Simulation time: 0 hr 27 min 45 sec) 
Heartbeat CPU 0 instructions: 610000003 cycles: 533743192 heartbeat IPC: 1.03873 cumulative IPC: 1.03813 (Simulation time: 0 hr 28 min 13 sec) 
Heartbeat CPU 0 instructions: 620000000 cycles: 543505202 heartbeat IPC: 1.02438 cumulative IPC: 1.03787 (Simulation time: 0 hr 28 min 42 sec) 
Heartbeat CPU 0 instructions: 630000001 cycles: 553122851 heartbeat IPC: 1.03976 cumulative IPC: 1.0379 (Simulation time: 0 hr 29 min 11 sec) 
Heartbeat CPU 0 instructions: 640000002 cycles: 562716127 heartbeat IPC: 1.0424 cumulative IPC: 1.03798 (Simulation time: 0 hr 29 min 39 sec) 
Heartbeat CPU 0 instructions: 650000002 cycles: 572322249 heartbeat IPC: 1.041 cumulative IPC: 1.03804 (Simulation time: 0 hr 30 min 8 sec) 
Heartbeat CPU 0 instructions: 660000000 cycles: 581980483 heartbeat IPC: 1.03539 cumulative IPC: 1.03799 (Simulation time: 0 hr 30 min 37 sec) 
Heartbeat CPU 0 instructions: 670000003 cycles: 591556643 heartbeat IPC: 1.04426 cumulative IPC: 1.0381 (Simulation time: 0 hr 31 min 5 sec) 
Heartbeat CPU 0 instructions: 680000001 cycles: 601223358 heartbeat IPC: 1.03448 cumulative IPC: 1.03804 (Simulation time: 0 hr 31 min 34 sec) 
Heartbeat CPU 0 instructions: 690000002 cycles: 610839314 heartbeat IPC: 1.03994 cumulative IPC: 1.03807 (Simulation time: 0 hr 32 min 3 sec) 
Heartbeat CPU 0 instructions: 700000003 cycles: 620449295 heartbeat IPC: 1.04058 cumulative IPC: 1.03811 (Simulation time: 0 hr 32 min 31 sec) 
Heartbeat CPU 0 instructions: 710000003 cycles: 630147782 heartbeat IPC: 1.03109 cumulative IPC: 1.038 (Simulation time: 0 hr 33 min 0 sec) 
Heartbeat CPU 0 instructions: 720000000 cycles: 639817203 heartbeat IPC: 1.03419 cumulative IPC: 1.03794 (Simulation time: 0 hr 33 min 28 sec) 
Heartbeat CPU 0 instructions: 730000003 cycles: 649389645 heartbeat IPC: 1.04467 cumulative IPC: 1.03804 (Simulation time: 0 hr 33 min 57 sec) 
Heartbeat CPU 0 instructions: 740000003 cycles: 659008887 heartbeat IPC: 1.03958 cumulative IPC: 1.03807 (Simulation time: 0 hr 34 min 26 sec) 
Heartbeat CPU 0 instructions: 750000001 cycles: 668676894 heartbeat IPC: 1.03434 cumulative IPC: 1.03801 (Simulation time: 0 hr 34 min 54 sec) 
Heartbeat CPU 0 instructions: 760000003 cycles: 678319971 heartbeat IPC: 1.03701 cumulative IPC: 1.03799 (Simulation time: 0 hr 35 min 23 sec) 
Heartbeat CPU 0 instructions: 770000000 cycles: 687976913 heartbeat IPC: 1.03552 cumulative IPC: 1.03796 (Simulation time: 0 hr 35 min 51 sec) 
Heartbeat CPU 0 instructions: 780000000 cycles: 697575870 heartbeat IPC: 1.04178 cumulative IPC: 1.03801 (Simulation time: 0 hr 36 min 20 sec) 
Heartbeat CPU 0 instructions: 790000000 cycles: 707230267 heartbeat IPC: 1.0358 cumulative IPC: 1.03798 (Simulation time: 0 hr 36 min 49 sec) 
Heartbeat CPU 0 instructions: 800000003 cycles: 716915065 heartbeat IPC: 1.03255 cumulative IPC: 1.0379 (Simulation time: 0 hr 37 min 17 sec) 
Heartbeat CPU 0 instructions: 810000001 cycles: 726547299 heartbeat IPC: 1.03818 cumulative IPC: 1.03791 (Simulation time: 0 hr 37 min 46 sec) 
Heartbeat CPU 0 instructions: 820000000 cycles: 736159864 heartbeat IPC: 1.0403 cumulative IPC: 1.03794 (Simulation time: 0 hr 38 min 14 sec) 
Heartbeat CPU 0 instructions: 830000003 cycles: 745768359 heartbeat IPC: 1.04075 cumulative IPC: 1.03798 (Simulation time: 0 hr 38 min 43 sec) 
Heartbeat CPU 0 instructions: 840000000 cycles: 755282010 heartbeat IPC: 1.05112 cumulative IPC: 1.03815 (Simulation time: 0 hr 39 min 11 sec) 
Heartbeat CPU 0 instructions: 850000001 cycles: 764890925 heartbeat IPC: 1.0407 cumulative IPC: 1.03819 (Simulation time: 0 hr 39 min 40 sec) 
Heartbeat CPU 0 instructions: 860000000 cycles: 774500902 heartbeat IPC: 1.04059 cumulative IPC: 1.03822 (Simulation time: 0 hr 40 min 9 sec) 
Heartbeat CPU 0 instructions: 870000001 cycles: 784168677 heartbeat IPC: 1.03436 cumulative IPC: 1.03817 (Simulation time: 0 hr 40 min 37 sec) 
Heartbeat CPU 0 instructions: 880000000 cycles: 793762970 heartbeat IPC: 1.04229 cumulative IPC: 1.03822 (Simulation time: 0 hr 41 min 6 sec) 
Heartbeat CPU 0 instructions: 890000001 cycles: 803366761 heartbeat IPC: 1.04126 cumulative IPC: 1.03826 (Simulation time: 0 hr 41 min 34 sec) 
Heartbeat CPU 0 instructions: 900000002 cycles: 813060906 heartbeat IPC: 1.03155 cumulative IPC: 1.03817 (Simulation time: 0 hr 42 min 3 sec) 
Heartbeat CPU 0 instructions: 910000002 cycles: 822667319 heartbeat IPC: 1.04097 cumulative IPC: 1.03821 (Simulation time: 0 hr 42 min 32 sec) 
Heartbeat CPU 0 instructions: 920000003 cycles: 832252183 heartbeat IPC: 1.04331 cumulative IPC: 1.03827 (Simulation time: 0 hr 43 min 0 sec) 
Heartbeat CPU 0 instructions: 930000002 cycles: 841950433 heartbeat IPC: 1.03111 cumulative IPC: 1.03818 (Simulation time: 0 hr 43 min 29 sec) 
Heartbeat CPU 0 instructions: 940000002 cycles: 851595377 heartbeat IPC: 1.03681 cumulative IPC: 1.03817 (Simulation time: 0 hr 43 min 57 sec) 
Heartbeat CPU 0 instructions: 950000000 cycles: 861205327 heartbeat IPC: 1.04059 cumulative IPC: 1.0382 (Simulation time: 0 hr 44 min 26 sec) 
Heartbeat CPU 0 instructions: 960000003 cycles: 870822899 heartbeat IPC: 1.03976 cumulative IPC: 1.03821 (Simulation time: 0 hr 44 min 55 sec) 
Heartbeat CPU 0 instructions: 970000002 cycles: 880473796 heartbeat IPC: 1.03617 cumulative IPC: 1.03819 (Simulation time: 0 hr 45 min 23 sec) 
Heartbeat CPU 0 instructions: 980000000 cycles: 890060302 heartbeat IPC: 1.04313 cumulative IPC: 1.03825 (Simulation time: 0 hr 45 min 52 sec) 
Heartbeat CPU 0 instructions: 990000000 cycles: 899834662 heartbeat IPC: 1.02308 cumulative IPC: 1.03807 (Simulation time: 0 hr 46 min 20 sec) 
Heartbeat CPU 0 instructions: 1000000000 cycles: 909533675 heartbeat IPC: 1.03103 cumulative IPC: 1.03799 (Simulation time: 0 hr 46 min 49 sec) 
Heartbeat CPU 0 instructions: 1010000003 cycles: 919200689 heartbeat IPC: 1.03445 cumulative IPC: 1.03796 (Simulation time: 0 hr 47 min 18 sec) 
Heartbeat CPU 0 instructions: 1020000001 cycles: 928802207 heartbeat IPC: 1.0415 cumulative IPC: 1.03799 (Simulation time: 0 hr 47 min 46 sec) 
Heartbeat CPU 0 instructions: 1030000003 cycles: 938488304 heartbeat IPC: 1.03241 cumulative IPC: 1.03793 (Simulation time: 0 hr 48 min 15 sec) 
Heartbeat CPU 0 instructions: 1040000002 cycles: 948110078 heartbeat IPC: 1.03931 cumulative IPC: 1.03795 (Simulation time: 0 hr 48 min 44 sec) 
Heartbeat CPU 0 instructions: 1050000003 cycles: 957807931 heartbeat IPC: 1.03116 cumulative IPC: 1.03788 (Simulation time: 0 hr 49 min 12 sec) 
Heartbeat CPU 0 instructions: 1060000001 cycles: 967444094 heartbeat IPC: 1.03776 cumulative IPC: 1.03788 (Simulation time: 0 hr 49 min 41 sec) 
Heartbeat CPU 0 instructions: 1070000001 cycles: 977129292 heartbeat IPC: 1.0325 cumulative IPC: 1.03782 (Simulation time: 0 hr 50 min 10 sec) 
Heartbeat CPU 0 instructions: 1080000000 cycles: 986792532 heartbeat IPC: 1.03485 cumulative IPC: 1.03779 (Simulation time: 0 hr 50 min 38 sec) 
Heartbeat CPU 0 instructions: 1090000003 cycles: 996511535 heartbeat IPC: 1.02891 cumulative IPC: 1.0377 (Simulation time: 0 hr 51 min 7 sec) 
Heartbeat CPU 0 instructions: 1100000000 cycles: 1006193662 heartbeat IPC: 1.03283 cumulative IPC: 1.03765 (Simulation time: 0 hr 51 min 36 sec) 
Finished CPU 0 instructions: 1000000000 cycles: 963716297 cumulative IPC: 1.03765 (Simulation time: 0 hr 51 min 36 sec) 

ChampSim completed all CPUs

Region of Interest Statistics

CPU 0 cumulative IPC: 1.03765 instructions: 1000000000 cycles: 963716297
L1D TOTAL     ACCESS:  287531912  HIT:  171804611  MISS:  115727301
L1D LOAD      ACCESS:  174677795  HIT:   67059428  MISS:  107618367
L1D RFO       ACCESS:  112854117  HIT:  104745183  MISS:    8108934
L1D PREFETCH  ACCESS:          0  HIT:          0  MISS:          0
L1D WRITEBACK ACCESS:          0  HIT:          0  MISS:          0
L1D PREFETCH  REQUESTED:          0  ISSUED:          0  USEFUL:          0  USELESS:          0
L1D AVERAGE MISS LATENCY: 44.2694 cycles
L1I TOTAL     ACCESS:  150346621  HIT:  150346621  MISS:          0
L1I LOAD      ACCESS:  150346621  HIT:  150346621  MISS:          0
L1I RFO       ACCESS:          0  HIT:          0  MISS:          0
L1I PREFETCH  ACCESS:          0  HIT:          0  MISS:          0
L1I WRITEBACK ACCESS:          0  HIT:          0  MISS:          0
L1I PREFETCH  REQUESTED:          0  ISSUED:          0  USEFUL:          0  USELESS:          0
L1I AVERAGE MISS LATENCY: -nan cycles
L2C TOTAL     ACCESS:  123903734  HIT:   93243712  MISS:   30660022
L2C LOAD      ACCESS:  106597275  HIT:   79533712  MISS:   27063563
L2C RFO       ACCESS:    8102718  HIT:    4506259  MISS:    3596459
L2C PREFETCH  ACCESS:          0  HIT:          0  MISS:          0
L2C WRITEBACK ACCESS:    9203741  HIT:    9203741  MISS:          0
L2C PREFETCH  REQUESTED:          0  ISSUED:          0  USEFUL:          0  USELESS:          0
L2C AVERAGE MISS LATENCY: 116.882 cycles
LLC TOTAL     ACCESS:   34601279  HIT:   26920410  MISS:    7680869
LLC LOAD      ACCESS:   27056075  HIT:   19375815  MISS:    7680260
LLC RFO       ACCESS:    3438435  HIT:    3438435  MISS:          0
LLC PREFETCH  ACCESS:          0  HIT:          0  MISS:          0
LLC WRITEBACK ACCESS:    4106769  HIT:    4106160  MISS:        609
LLC PREFETCH  REQUESTED:          0  ISSUED:          0  USEFUL:          0  USELESS:          0
LLC AVERAGE MISS LATENCY: 304.872 cycles
Major fault: 0 Minor fault: 43201

DRAM Statistics
 CHANNEL 0
 RQ ROW_BUFFER_HIT:    3783491  ROW_BUFFER_MISS:    3896769
 DBUS_CONGESTED:    1067807
 WQ ROW_BUFFER_HIT:     494092  ROW_BUFFER_MISS:     462026  FULL:          0

 AVG_CONGESTED_CYCLE: 6

CPU 0 Branch Prediction Accuracy: 99.8488% MPKI: 0.001793 Average ROB Occupancy at Mispredict: 327.434

Branch types
NOT_BRANCH: 998814105 99.8814%
BRANCH_DIRECT_JUMP: 296912 0.0296912%
BRANCH_INDIRECT: 295123 0.0295123%
BRANCH_CONDITIONAL: 593824 0.0593824%
BRANCH_DIRECT_CALL: 0 0%
BRANCH_INDIRECT_CALL: 0 0%
BRANCH_RETURN: 0 0%
BRANCH_OTHER: 0 0%

