
*** ChampSim Multicore Out-of-Order Simulator ***

Warmup Instructions: 100000000
Simulation Instructions: 1000000000
Number of CPUs: 1
LLC sets: 2048
LLC ways: 16
Off-chip DRAM Size: 4096 MB Channels: 1 Width: 64-bit Data Rate: 3200 MT/s

CPU 0 runs /scratch/user/kevin.weston/dpc3-traces/619.champsimtrace.xz
CPU 0 Bimodal branch predictor
Per-line RRPV Initialized
PRRIP State Initialized
Assign SAMPLER_SET[0]: 454  LLC: 2048
SAMPLER_SET[0]: 454
Assign SAMPLER_SET[1]: 1662  LLC: 2048
SAMPLER_SET[1]: 1662
Assign SAMPLER_SET[2]: 1921  LLC: 2048
SAMPLER_SET[2]: 1921
Assign SAMPLER_SET[3]: 1131  LLC: 2048
SAMPLER_SET[3]: 1131
Assign SAMPLER_SET[4]: 331  LLC: 2048
SAMPLER_SET[4]: 331
Assign SAMPLER_SET[5]: 1531  LLC: 2048
SAMPLER_SET[5]: 1531
Assign SAMPLER_SET[6]: 482  LLC: 2048
SAMPLER_SET[6]: 482
Assign SAMPLER_SET[7]: 1275  LLC: 2048
SAMPLER_SET[7]: 1275
Assign SAMPLER_SET[8]: 1876  LLC: 2048
SAMPLER_SET[8]: 1876
Assign SAMPLER_SET[9]: 2038  LLC: 2048
SAMPLER_SET[9]: 2038
Assign SAMPLER_SET[10]: 701  LLC: 2048
SAMPLER_SET[10]: 701
Assign SAMPLER_SET[11]: 479  LLC: 2048
SAMPLER_SET[11]: 479
Assign SAMPLER_SET[12]: 892  LLC: 2048
SAMPLER_SET[12]: 892
Assign SAMPLER_SET[13]: 1820  LLC: 2048
SAMPLER_SET[13]: 1820
Assign SAMPLER_SET[14]: 1505  LLC: 2048
SAMPLER_SET[14]: 1505
Assign SAMPLER_SET[15]: 1159  LLC: 2048
SAMPLER_SET[15]: 1159
Assign SAMPLER_SET[16]: 513  LLC: 2048
SAMPLER_SET[16]: 513
Assign SAMPLER_SET[17]: 703  LLC: 2048
SAMPLER_SET[17]: 703
Assign SAMPLER_SET[18]: 561  LLC: 2048
SAMPLER_SET[18]: 561
Assign SAMPLER_SET[19]: 990  LLC: 2048
SAMPLER_SET[19]: 990
Assign SAMPLER_SET[20]: 342  LLC: 2048
SAMPLER_SET[20]: 342
Assign SAMPLER_SET[21]: 882  LLC: 2048
SAMPLER_SET[21]: 882
Assign SAMPLER_SET[22]: 15  LLC: 2048
SAMPLER_SET[22]: 15
Assign SAMPLER_SET[23]: 71  LLC: 2048
SAMPLER_SET[23]: 71
Assign SAMPLER_SET[24]: 1127  LLC: 2048
SAMPLER_SET[24]: 1127
Assign SAMPLER_SET[25]: 1382  LLC: 2048
SAMPLER_SET[25]: 1382
Assign SAMPLER_SET[26]: 647  LLC: 2048
SAMPLER_SET[26]: 647
Assign SAMPLER_SET[27]: 857  LLC: 2048
SAMPLER_SET[27]: 857
Assign SAMPLER_SET[28]: 1450  LLC: 2048
SAMPLER_SET[28]: 1450
Assign SAMPLER_SET[29]: 1160  LLC: 2048
SAMPLER_SET[29]: 1160
Assign SAMPLER_SET[30]: 1852  LLC: 2048
SAMPLER_SET[30]: 1852
Assign SAMPLER_SET[31]: 1881  LLC: 2048
SAMPLER_SET[31]: 1881
Assign SAMPLER_SET[32]: 1770  LLC: 2048
SAMPLER_SET[32]: 1770
Assign SAMPLER_SET[33]: 1622  LLC: 2048
SAMPLER_SET[33]: 1622
Assign SAMPLER_SET[34]: 275  LLC: 2048
SAMPLER_SET[34]: 275
Assign SAMPLER_SET[35]: 635  LLC: 2048
SAMPLER_SET[35]: 635
Assign SAMPLER_SET[36]: 466  LLC: 2048
SAMPLER_SET[36]: 466
Assign SAMPLER_SET[37]: 1413  LLC: 2048
SAMPLER_SET[37]: 1413
Assign SAMPLER_SET[38]: 417  LLC: 2048
SAMPLER_SET[38]: 417
Assign SAMPLER_SET[39]: 472  LLC: 2048
SAMPLER_SET[39]: 472
Assign SAMPLER_SET[40]: 1340  LLC: 2048
SAMPLER_SET[40]: 1340
Assign SAMPLER_SET[41]: 852  LLC: 2048
SAMPLER_SET[41]: 852
Assign SAMPLER_SET[42]: 1365  LLC: 2048
SAMPLER_SET[42]: 1365
Assign SAMPLER_SET[43]: 47  LLC: 2048
SAMPLER_SET[43]: 47
Assign SAMPLER_SET[44]: 823  LLC: 2048
SAMPLER_SET[44]: 823
Assign SAMPLER_SET[45]: 686  LLC: 2048
SAMPLER_SET[45]: 686
Assign SAMPLER_SET[46]: 1637  LLC: 2048
SAMPLER_SET[46]: 1637
Assign SAMPLER_SET[47]: 1115  LLC: 2048
SAMPLER_SET[47]: 1115
Assign SAMPLER_SET[48]: 986  LLC: 2048
SAMPLER_SET[48]: 986
Assign SAMPLER_SET[49]: 258  LLC: 2048
SAMPLER_SET[49]: 258
Assign SAMPLER_SET[50]: 633  LLC: 2048
SAMPLER_SET[50]: 633
Assign SAMPLER_SET[51]: 920  LLC: 2048
SAMPLER_SET[51]: 920
Assign SAMPLER_SET[52]: 204  LLC: 2048
SAMPLER_SET[52]: 204
Assign SAMPLER_SET[53]: 227  LLC: 2048
SAMPLER_SET[53]: 227
Assign SAMPLER_SET[54]: 1818  LLC: 2048
SAMPLER_SET[54]: 1818
Assign SAMPLER_SET[55]: 886  LLC: 2048
SAMPLER_SET[55]: 886
Assign SAMPLER_SET[56]: 1422  LLC: 2048
SAMPLER_SET[56]: 1422
Assign SAMPLER_SET[57]: 607  LLC: 2048
SAMPLER_SET[57]: 607
Assign SAMPLER_SET[58]: 217  LLC: 2048
SAMPLER_SET[58]: 217
Assign SAMPLER_SET[59]: 1945  LLC: 2048
SAMPLER_SET[59]: 1945
Assign SAMPLER_SET[60]: 143  LLC: 2048
SAMPLER_SET[60]: 143
Assign SAMPLER_SET[61]: 1311  LLC: 2048
SAMPLER_SET[61]: 1311
Assign SAMPLER_SET[62]: 319  LLC: 2048
SAMPLER_SET[62]: 319
Assign SAMPLER_SET[63]: 1846  LLC: 2048
SAMPLER_SET[63]: 1846
Heartbeat CPU 0 instructions: 10000002 cycles: 3522092 heartbeat IPC: 2.83922 cumulative IPC: 2.83922 (Simulation time: 0 hr 0 min 25 sec) 
Heartbeat CPU 0 instructions: 20000003 cycles: 7041458 heartbeat IPC: 2.84142 cumulative IPC: 2.84032 (Simulation time: 0 hr 0 min 51 sec) 
Heartbeat CPU 0 instructions: 30000001 cycles: 10554180 heartbeat IPC: 2.84679 cumulative IPC: 2.84248 (Simulation time: 0 hr 1 min 16 sec) 
Heartbeat CPU 0 instructions: 40000000 cycles: 14080033 heartbeat IPC: 2.83619 cumulative IPC: 2.8409 (Simulation time: 0 hr 1 min 41 sec) 
Heartbeat CPU 0 instructions: 50000002 cycles: 17606623 heartbeat IPC: 2.8356 cumulative IPC: 2.83984 (Simulation time: 0 hr 2 min 6 sec) 
Heartbeat CPU 0 instructions: 60000002 cycles: 21142251 heartbeat IPC: 2.82835 cumulative IPC: 2.83792 (Simulation time: 0 hr 2 min 32 sec) 
Heartbeat CPU 0 instructions: 70000003 cycles: 24674675 heartbeat IPC: 2.83092 cumulative IPC: 2.83692 (Simulation time: 0 hr 2 min 57 sec) 
Heartbeat CPU 0 instructions: 80000000 cycles: 28196864 heartbeat IPC: 2.83914 cumulative IPC: 2.83719 (Simulation time: 0 hr 3 min 22 sec) 
Heartbeat CPU 0 instructions: 90000002 cycles: 31724101 heartbeat IPC: 2.83508 cumulative IPC: 2.83696 (Simulation time: 0 hr 3 min 48 sec) 
Heartbeat CPU 0 instructions: 100000000 cycles: 35244018 heartbeat IPC: 2.84098 cumulative IPC: 2.83736 (Simulation time: 0 hr 4 min 13 sec) 

Warmup complete CPU 0 instructions: 100000004 cycles: 35244019 (Simulation time: 0 hr 4 min 13 sec) 

Heartbeat CPU 0 instructions: 110000000 cycles: 61601132 heartbeat IPC: 0.379404 cumulative IPC: 0.379404 (Simulation time: 0 hr 4 min 57 sec) 
Heartbeat CPU 0 instructions: 120000001 cycles: 88761479 heartbeat IPC: 0.368184 cumulative IPC: 0.37371 (Simulation time: 0 hr 5 min 42 sec) 
Heartbeat CPU 0 instructions: 130000001 cycles: 115408100 heartbeat IPC: 0.375282 cumulative IPC: 0.374232 (Simulation time: 0 hr 6 min 26 sec) 
Heartbeat CPU 0 instructions: 140000002 cycles: 141824349 heartbeat IPC: 0.378555 cumulative IPC: 0.375304 (Simulation time: 0 hr 7 min 11 sec) 
Heartbeat CPU 0 instructions: 150000001 cycles: 169225484 heartbeat IPC: 0.364948 cumulative IPC: 0.373186 (Simulation time: 0 hr 7 min 56 sec) 
Heartbeat CPU 0 instructions: 160000001 cycles: 196445517 heartbeat IPC: 0.367376 cumulative IPC: 0.372205 (Simulation time: 0 hr 8 min 41 sec) 
Heartbeat CPU 0 instructions: 170000002 cycles: 223487760 heartbeat IPC: 0.369792 cumulative IPC: 0.371858 (Simulation time: 0 hr 9 min 25 sec) 
Heartbeat CPU 0 instructions: 180000000 cycles: 250306953 heartbeat IPC: 0.372867 cumulative IPC: 0.371984 (Simulation time: 0 hr 10 min 10 sec) 
Heartbeat CPU 0 instructions: 190000002 cycles: 277265602 heartbeat IPC: 0.370939 cumulative IPC: 0.371868 (Simulation time: 0 hr 10 min 55 sec) 
Heartbeat CPU 0 instructions: 200000002 cycles: 304604146 heartbeat IPC: 0.365784 cumulative IPC: 0.37125 (Simulation time: 0 hr 11 min 40 sec) 
Heartbeat CPU 0 instructions: 210000001 cycles: 331813826 heartbeat IPC: 0.367516 cumulative IPC: 0.370908 (Simulation time: 0 hr 12 min 24 sec) 
Heartbeat CPU 0 instructions: 220000000 cycles: 359337079 heartbeat IPC: 0.363329 cumulative IPC: 0.370264 (Simulation time: 0 hr 13 min 9 sec) 
Heartbeat CPU 0 instructions: 230000000 cycles: 386152606 heartbeat IPC: 0.372918 cumulative IPC: 0.370467 (Simulation time: 0 hr 13 min 54 sec) 
Heartbeat CPU 0 instructions: 240000001 cycles: 413543935 heartbeat IPC: 0.365079 cumulative IPC: 0.370077 (Simulation time: 0 hr 14 min 39 sec) 
Heartbeat CPU 0 instructions: 250000000 cycles: 440718716 heartbeat IPC: 0.367988 cumulative IPC: 0.369937 (Simulation time: 0 hr 15 min 24 sec) 
Heartbeat CPU 0 instructions: 260000002 cycles: 467378451 heartbeat IPC: 0.375098 cumulative IPC: 0.370255 (Simulation time: 0 hr 16 min 8 sec) 
Heartbeat CPU 0 instructions: 270000001 cycles: 493789907 heartbeat IPC: 0.378624 cumulative IPC: 0.370737 (Simulation time: 0 hr 16 min 52 sec) 
Heartbeat CPU 0 instructions: 280000002 cycles: 519870501 heartbeat IPC: 0.383427 cumulative IPC: 0.37142 (Simulation time: 0 hr 17 min 36 sec) 
Heartbeat CPU 0 instructions: 290000000 cycles: 546512258 heartbeat IPC: 0.375351 cumulative IPC: 0.371625 (Simulation time: 0 hr 18 min 20 sec) 
Heartbeat CPU 0 instructions: 300000003 cycles: 573498781 heartbeat IPC: 0.370555 cumulative IPC: 0.371571 (Simulation time: 0 hr 19 min 5 sec) 
Heartbeat CPU 0 instructions: 310000001 cycles: 600304955 heartbeat IPC: 0.373048 cumulative IPC: 0.371641 (Simulation time: 0 hr 19 min 49 sec) 
Heartbeat CPU 0 instructions: 320000001 cycles: 627277325 heartbeat IPC: 0.37075 cumulative IPC: 0.371601 (Simulation time: 0 hr 20 min 34 sec) 
Heartbeat CPU 0 instructions: 330000000 cycles: 654017450 heartbeat IPC: 0.37397 cumulative IPC: 0.371703 (Simulation time: 0 hr 21 min 19 sec) 
Heartbeat CPU 0 instructions: 340000002 cycles: 680109623 heartbeat IPC: 0.383257 cumulative IPC: 0.372171 (Simulation time: 0 hr 22 min 3 sec) 
Heartbeat CPU 0 instructions: 350000001 cycles: 706068804 heartbeat IPC: 0.38522 cumulative IPC: 0.372676 (Simulation time: 0 hr 22 min 47 sec) 
Heartbeat CPU 0 instructions: 360000001 cycles: 732479663 heartbeat IPC: 0.378632 cumulative IPC: 0.372901 (Simulation time: 0 hr 23 min 31 sec) 
Heartbeat CPU 0 instructions: 370000002 cycles: 758400075 heartbeat IPC: 0.385796 cumulative IPC: 0.373363 (Simulation time: 0 hr 24 min 15 sec) 
Heartbeat CPU 0 instructions: 380000002 cycles: 784604161 heartbeat IPC: 0.38162 cumulative IPC: 0.373652 (Simulation time: 0 hr 24 min 59 sec) 
Heartbeat CPU 0 instructions: 390000003 cycles: 811025757 heartbeat IPC: 0.378478 cumulative IPC: 0.373816 (Simulation time: 0 hr 25 min 43 sec) 
Heartbeat CPU 0 instructions: 400000001 cycles: 836897293 heartbeat IPC: 0.386525 cumulative IPC: 0.374227 (Simulation time: 0 hr 26 min 27 sec) 
Heartbeat CPU 0 instructions: 410000002 cycles: 863157084 heartbeat IPC: 0.38081 cumulative IPC: 0.374435 (Simulation time: 0 hr 27 min 11 sec) 
Heartbeat CPU 0 instructions: 420000002 cycles: 889453300 heartbeat IPC: 0.380283 cumulative IPC: 0.374615 (Simulation time: 0 hr 27 min 55 sec) 
Heartbeat CPU 0 instructions: 430000000 cycles: 916556047 heartbeat IPC: 0.368966 cumulative IPC: 0.374442 (Simulation time: 0 hr 28 min 40 sec) 
Heartbeat CPU 0 instructions: 440000000 cycles: 943148396 heartbeat IPC: 0.376048 cumulative IPC: 0.374489 (Simulation time: 0 hr 29 min 25 sec) 
Heartbeat CPU 0 instructions: 450000000 cycles: 969314885 heartbeat IPC: 0.382168 cumulative IPC: 0.374704 (Simulation time: 0 hr 30 min 9 sec) 
Heartbeat CPU 0 instructions: 460000003 cycles: 994388162 heartbeat IPC: 0.398831 cumulative IPC: 0.375335 (Simulation time: 0 hr 30 min 52 sec) 
Heartbeat CPU 0 instructions: 470000001 cycles: 1020043358 heartbeat IPC: 0.389785 cumulative IPC: 0.375711 (Simulation time: 0 hr 31 min 36 sec) 
Heartbeat CPU 0 instructions: 480000000 cycles: 1044255568 heartbeat IPC: 0.413015 cumulative IPC: 0.376606 (Simulation time: 0 hr 32 min 18 sec) 
Heartbeat CPU 0 instructions: 490000001 cycles: 1067387287 heartbeat IPC: 0.432307 cumulative IPC: 0.377855 (Simulation time: 0 hr 32 min 59 sec) 
Heartbeat CPU 0 instructions: 500000001 cycles: 1089716752 heartbeat IPC: 0.447839 cumulative IPC: 0.379337 (Simulation time: 0 hr 33 min 40 sec) 
Heartbeat CPU 0 instructions: 510000000 cycles: 1111365218 heartbeat IPC: 0.461926 cumulative IPC: 0.380998 (Simulation time: 0 hr 34 min 19 sec) 
Heartbeat CPU 0 instructions: 520000001 cycles: 1131623921 heartbeat IPC: 0.493615 cumulative IPC: 0.383079 (Simulation time: 0 hr 34 min 58 sec) 
Heartbeat CPU 0 instructions: 530000001 cycles: 1151227932 heartbeat IPC: 0.5101 cumulative IPC: 0.38531 (Simulation time: 0 hr 35 min 35 sec) 
Heartbeat CPU 0 instructions: 540000001 cycles: 1170146110 heartbeat IPC: 0.528592 cumulative IPC: 0.387699 (Simulation time: 0 hr 36 min 12 sec) 
Heartbeat CPU 0 instructions: 550000000 cycles: 1187986640 heartbeat IPC: 0.560521 cumulative IPC: 0.390373 (Simulation time: 0 hr 36 min 48 sec) 
Heartbeat CPU 0 instructions: 560000003 cycles: 1205966960 heartbeat IPC: 0.556164 cumulative IPC: 0.39292 (Simulation time: 0 hr 37 min 24 sec) 
Heartbeat CPU 0 instructions: 570000001 cycles: 1223111364 heartbeat IPC: 0.583281 cumulative IPC: 0.395667 (Simulation time: 0 hr 37 min 59 sec) 
Heartbeat CPU 0 instructions: 580000000 cycles: 1239912788 heartbeat IPC: 0.595188 cumulative IPC: 0.39845 (Simulation time: 0 hr 38 min 34 sec) 
Heartbeat CPU 0 instructions: 590000000 cycles: 1256327243 heartbeat IPC: 0.609219 cumulative IPC: 0.401283 (Simulation time: 0 hr 39 min 8 sec) 
Heartbeat CPU 0 instructions: 600000002 cycles: 1271866653 heartbeat IPC: 0.643525 cumulative IPC: 0.404327 (Simulation time: 0 hr 39 min 42 sec) 
Heartbeat CPU 0 instructions: 610000002 cycles: 1287429190 heartbeat IPC: 0.642569 cumulative IPC: 0.407288 (Simulation time: 0 hr 40 min 15 sec) 
Heartbeat CPU 0 instructions: 620000003 cycles: 1303181094 heartbeat IPC: 0.634844 cumulative IPC: 0.410115 (Simulation time: 0 hr 40 min 49 sec) 
Heartbeat CPU 0 instructions: 630000002 cycles: 1318340225 heartbeat IPC: 0.659668 cumulative IPC: 0.413063 (Simulation time: 0 hr 41 min 22 sec) 
Heartbeat CPU 0 instructions: 640000001 cycles: 1333547861 heartbeat IPC: 0.657564 cumulative IPC: 0.415927 (Simulation time: 0 hr 41 min 55 sec) 
Heartbeat CPU 0 instructions: 650000002 cycles: 1348519048 heartbeat IPC: 0.66795 cumulative IPC: 0.4188 (Simulation time: 0 hr 42 min 28 sec) 
Heartbeat CPU 0 instructions: 660000000 cycles: 1362514380 heartbeat IPC: 0.714524 cumulative IPC: 0.421919 (Simulation time: 0 hr 43 min 0 sec) 
Heartbeat CPU 0 instructions: 670000002 cycles: 1376923504 heartbeat IPC: 0.694005 cumulative IPC: 0.424841 (Simulation time: 0 hr 43 min 33 sec) 
Heartbeat CPU 0 instructions: 680000002 cycles: 1391247005 heartbeat IPC: 0.698153 cumulative IPC: 0.427728 (Simulation time: 0 hr 44 min 5 sec) 
Heartbeat CPU 0 instructions: 690000003 cycles: 1405742835 heartbeat IPC: 0.689854 cumulative IPC: 0.4305 (Simulation time: 0 hr 44 min 37 sec) 
Heartbeat CPU 0 instructions: 700000000 cycles: 1419830722 heartbeat IPC: 0.709829 cumulative IPC: 0.433342 (Simulation time: 0 hr 45 min 10 sec) 
Heartbeat CPU 0 instructions: 710000001 cycles: 1434240062 heartbeat IPC: 0.693994 cumulative IPC: 0.436027 (Simulation time: 0 hr 45 min 42 sec) 
Heartbeat CPU 0 instructions: 720000003 cycles: 1448566484 heartbeat IPC: 0.698011 cumulative IPC: 0.438683 (Simulation time: 0 hr 46 min 14 sec) 
Heartbeat CPU 0 instructions: 730000001 cycles: 1462934721 heartbeat IPC: 0.695979 cumulative IPC: 0.441272 (Simulation time: 0 hr 46 min 47 sec) 
Heartbeat CPU 0 instructions: 740000003 cycles: 1476984864 heartbeat IPC: 0.711737 cumulative IPC: 0.443908 (Simulation time: 0 hr 47 min 19 sec) 
Heartbeat CPU 0 instructions: 750000002 cycles: 1491241273 heartbeat IPC: 0.701439 cumulative IPC: 0.446429 (Simulation time: 0 hr 47 min 51 sec) 
Heartbeat CPU 0 instructions: 760000002 cycles: 1505658077 heartbeat IPC: 0.693635 cumulative IPC: 0.448853 (Simulation time: 0 hr 48 min 23 sec) 
Heartbeat CPU 0 instructions: 770000000 cycles: 1519859663 heartbeat IPC: 0.704147 cumulative IPC: 0.451295 (Simulation time: 0 hr 48 min 55 sec) 
Heartbeat CPU 0 instructions: 780000001 cycles: 1533766242 heartbeat IPC: 0.719084 cumulative IPC: 0.45378 (Simulation time: 0 hr 49 min 27 sec) 
Heartbeat CPU 0 instructions: 790000003 cycles: 1547910875 heartbeat IPC: 0.706982 cumulative IPC: 0.456148 (Simulation time: 0 hr 49 min 59 sec) 
Heartbeat CPU 0 instructions: 800000001 cycles: 1561966006 heartbeat IPC: 0.711484 cumulative IPC: 0.458499 (Simulation time: 0 hr 50 min 31 sec) 
Heartbeat CPU 0 instructions: 810000002 cycles: 1576137860 heartbeat IPC: 0.705624 cumulative IPC: 0.460772 (Simulation time: 0 hr 51 min 4 sec) 
Heartbeat CPU 0 instructions: 820000000 cycles: 1590785829 heartbeat IPC: 0.682688 cumulative IPC: 0.462861 (Simulation time: 0 hr 51 min 36 sec) 
Heartbeat CPU 0 instructions: 830000000 cycles: 1604920143 heartbeat IPC: 0.707498 cumulative IPC: 0.465064 (Simulation time: 0 hr 52 min 8 sec) 
Heartbeat CPU 0 instructions: 840000002 cycles: 1618981797 heartbeat IPC: 0.711154 cumulative IPC: 0.467249 (Simulation time: 0 hr 52 min 40 sec) 
Heartbeat CPU 0 instructions: 850000000 cycles: 1633238175 heartbeat IPC: 0.70144 cumulative IPC: 0.469338 (Simulation time: 0 hr 53 min 12 sec) 
Heartbeat CPU 0 instructions: 860000002 cycles: 1647639276 heartbeat IPC: 0.694391 cumulative IPC: 0.471348 (Simulation time: 0 hr 53 min 45 sec) 
Heartbeat CPU 0 instructions: 870000000 cycles: 1661408985 heartbeat IPC: 0.726232 cumulative IPC: 0.473507 (Simulation time: 0 hr 54 min 17 sec) 
Heartbeat CPU 0 instructions: 880000000 cycles: 1675684878 heartbeat IPC: 0.700482 cumulative IPC: 0.475482 (Simulation time: 0 hr 54 min 49 sec) 
Heartbeat CPU 0 instructions: 890000003 cycles: 1690109979 heartbeat IPC: 0.693236 cumulative IPC: 0.47738 (Simulation time: 0 hr 55 min 21 sec) 
Heartbeat CPU 0 instructions: 900000001 cycles: 1704273267 heartbeat IPC: 0.706051 cumulative IPC: 0.479321 (Simulation time: 0 hr 55 min 53 sec) 
Heartbeat CPU 0 instructions: 910000003 cycles: 1718408519 heartbeat IPC: 0.707451 cumulative IPC: 0.481236 (Simulation time: 0 hr 56 min 25 sec) 
Heartbeat CPU 0 instructions: 920000000 cycles: 1732934080 heartbeat IPC: 0.688441 cumulative IPC: 0.483009 (Simulation time: 0 hr 56 min 58 sec) 
Heartbeat CPU 0 instructions: 930000002 cycles: 1746875463 heartbeat IPC: 0.717289 cumulative IPC: 0.484917 (Simulation time: 0 hr 57 min 30 sec) 
Heartbeat CPU 0 instructions: 940000002 cycles: 1761705196 heartbeat IPC: 0.674321 cumulative IPC: 0.486544 (Simulation time: 0 hr 58 min 2 sec) 
Heartbeat CPU 0 instructions: 950000003 cycles: 1797164269 heartbeat IPC: 0.282015 cumulative IPC: 0.482428 (Simulation time: 0 hr 58 min 57 sec) 
Heartbeat CPU 0 instructions: 960000001 cycles: 1824789239 heartbeat IPC: 0.361991 cumulative IPC: 0.480569 (Simulation time: 0 hr 59 min 43 sec) 
Heartbeat CPU 0 instructions: 970000002 cycles: 1840123574 heartbeat IPC: 0.652131 cumulative IPC: 0.482027 (Simulation time: 1 hr 0 min 16 sec) 
Heartbeat CPU 0 instructions: 980000000 cycles: 1855205461 heartbeat IPC: 0.663047 cumulative IPC: 0.483527 (Simulation time: 1 hr 0 min 49 sec) 
Heartbeat CPU 0 instructions: 990000000 cycles: 1870150695 heartbeat IPC: 0.66911 cumulative IPC: 0.485038 (Simulation time: 1 hr 1 min 22 sec) 
Heartbeat CPU 0 instructions: 1000000003 cycles: 1884545980 heartbeat IPC: 0.694672 cumulative IPC: 0.48667 (Simulation time: 1 hr 1 min 54 sec) 
Heartbeat CPU 0 instructions: 1010000002 cycles: 1898784563 heartbeat IPC: 0.702317 cumulative IPC: 0.488318 (Simulation time: 1 hr 2 min 26 sec) 
Heartbeat CPU 0 instructions: 1020000003 cycles: 1913053279 heartbeat IPC: 0.700834 cumulative IPC: 0.489933 (Simulation time: 1 hr 2 min 58 sec) 
Heartbeat CPU 0 instructions: 1030000001 cycles: 1927574116 heartbeat IPC: 0.688665 cumulative IPC: 0.491458 (Simulation time: 1 hr 3 min 30 sec) 
Heartbeat CPU 0 instructions: 1040000003 cycles: 1941892358 heartbeat IPC: 0.69841 cumulative IPC: 0.493012 (Simulation time: 1 hr 4 min 2 sec) 
Heartbeat CPU 0 instructions: 1050000000 cycles: 1956187787 heartbeat IPC: 0.699524 cumulative IPC: 0.494549 (Simulation time: 1 hr 4 min 34 sec) 
Heartbeat CPU 0 instructions: 1060000001 cycles: 1970581634 heartbeat IPC: 0.694741 cumulative IPC: 0.496037 (Simulation time: 1 hr 5 min 7 sec) 
Heartbeat CPU 0 instructions: 1070000003 cycles: 1984595834 heartbeat IPC: 0.713562 cumulative IPC: 0.497601 (Simulation time: 1 hr 5 min 39 sec) 
Heartbeat CPU 0 instructions: 1080000000 cycles: 1998661059 heartbeat IPC: 0.710973 cumulative IPC: 0.49913 (Simulation time: 1 hr 6 min 10 sec) 
Heartbeat CPU 0 instructions: 1090000002 cycles: 2013095070 heartbeat IPC: 0.692808 cumulative IPC: 0.500543 (Simulation time: 1 hr 6 min 43 sec) 
Heartbeat CPU 0 instructions: 1100000000 cycles: 2027552730 heartbeat IPC: 0.691675 cumulative IPC: 0.50193 (Simulation time: 1 hr 7 min 15 sec) 
Finished CPU 0 instructions: 1000000000 cycles: 1992308960 cumulative IPC: 0.50193 (Simulation time: 1 hr 7 min 15 sec) 

ChampSim completed all CPUs

Region of Interest Statistics

CPU 0 cumulative IPC: 0.50193 instructions: 1000000000 cycles: 1992308960
L1D TOTAL     ACCESS:  250408414  HIT:  195179398  MISS:   55229016
L1D LOAD      ACCESS:   85984685  HIT:   77609605  MISS:    8375080
L1D RFO       ACCESS:  164423729  HIT:  117569793  MISS:   46853936
L1D PREFETCH  ACCESS:          0  HIT:          0  MISS:          0
L1D WRITEBACK ACCESS:          0  HIT:          0  MISS:          0
L1D PREFETCH  REQUESTED:          0  ISSUED:          0  USEFUL:          0  USELESS:          0
L1D AVERAGE MISS LATENCY: 341.184 cycles
L1I TOTAL     ACCESS:  154330437  HIT:  154330434  MISS:          3
L1I LOAD      ACCESS:  154330437  HIT:  154330434  MISS:          3
L1I RFO       ACCESS:          0  HIT:          0  MISS:          0
L1I PREFETCH  ACCESS:          0  HIT:          0  MISS:          0
L1I WRITEBACK ACCESS:          0  HIT:          0  MISS:          0
L1I PREFETCH  REQUESTED:          0  ISSUED:          0  USEFUL:          0  USELESS:          0
L1I AVERAGE MISS LATENCY: 298.333 cycles
L2C TOTAL     ACCESS:  102082770  HIT:   58777032  MISS:   43305738
L2C LOAD      ACCESS:    8375083  HIT:       5113  MISS:    8369970
L2C RFO       ACCESS:   46853748  HIT:   11925830  MISS:   34927918
L2C PREFETCH  ACCESS:          0  HIT:          0  MISS:          0
L2C WRITEBACK ACCESS:   46853939  HIT:   46846089  MISS:       7850
L2C PREFETCH  REQUESTED:          0  ISSUED:          0  USEFUL:          0  USELESS:          0
L2C AVERAGE MISS LATENCY: 417.666 cycles
LLC TOTAL     ACCESS:   78228602  HIT:   26771076  MISS:   51457526
LLC LOAD      ACCESS:    8369970  HIT:       5121  MISS:    8364849
LLC RFO       ACCESS:   34923597  HIT:    8458390  MISS:   26465207
LLC PREFETCH  ACCESS:          0  HIT:          0  MISS:          0
LLC WRITEBACK ACCESS:   34935035  HIT:   18307565  MISS:   16627470
LLC PREFETCH  REQUESTED:          0  ISSUED:          0  USEFUL:          0  USELESS:          0
LLC AVERAGE MISS LATENCY: 316.678 cycles
Major fault: 0 Minor fault: 304584
==============================
Perceptron RRIP Stats:
   Num Updates:          2148954
   Num Primary Trains:   190064
   Num Secondary Trains: 180155
==============================
primary_perceptron #0: -2 2 2 -2 -4 -2 14 -2 0 4 4 0 4 2 -2 -14 
secondary_perceptron #0: -1 3 -3 -1 -1 -7 17 -5 -3 5 5 1 3 5 -1 1 -3 3 1 -9 -21 


DRAM Statistics
 CHANNEL 0
 RQ ROW_BUFFER_HIT:    1853801  ROW_BUFFER_MISS:   32927930
 DBUS_CONGESTED:   33809264
 WQ ROW_BUFFER_HIT:    5927637  ROW_BUFFER_MISS:   20540754  FULL:      13737

 AVG_CONGESTED_CYCLE: 6

CPU 0 Branch Prediction Accuracy: 97.1481% MPKI: 0.40653 Average ROB Occupancy at Mispredict: 246.15

Branch types
NOT_BRANCH: 985745443 98.5745%
BRANCH_DIRECT_JUMP: 1582739 0.158274%
BRANCH_INDIRECT: 0 0%
BRANCH_CONDITIONAL: 12671818 1.26718%
BRANCH_DIRECT_CALL: 2 2e-07%
BRANCH_INDIRECT_CALL: 0 0%
BRANCH_RETURN: 2 2e-07%
BRANCH_OTHER: 0 0%

