
*** ChampSim Multicore Out-of-Order Simulator ***

Warmup Instructions: 100000000
Simulation Instructions: 1000000000
Number of CPUs: 1
LLC sets: 2048
LLC ways: 16
Off-chip DRAM Size: 4096 MB Channels: 1 Width: 64-bit Data Rate: 3200 MT/s

CPU 0 runs /scratch/user/kevin.weston/dpc3-traces/619.champsimtrace.xz
CPU 0 Bimodal branch predictor
Per-line RRPV Initialized
PRRIP State Initialized
Assign SAMPLER_SET[0]: 454  LLC: 2048
SAMPLER_SET[0]: 454
Assign SAMPLER_SET[1]: 1662  LLC: 2048
SAMPLER_SET[1]: 1662
Assign SAMPLER_SET[2]: 1921  LLC: 2048
SAMPLER_SET[2]: 1921
Assign SAMPLER_SET[3]: 1131  LLC: 2048
SAMPLER_SET[3]: 1131
Assign SAMPLER_SET[4]: 331  LLC: 2048
SAMPLER_SET[4]: 331
Assign SAMPLER_SET[5]: 1531  LLC: 2048
SAMPLER_SET[5]: 1531
Assign SAMPLER_SET[6]: 482  LLC: 2048
SAMPLER_SET[6]: 482
Assign SAMPLER_SET[7]: 1275  LLC: 2048
SAMPLER_SET[7]: 1275
Assign SAMPLER_SET[8]: 1876  LLC: 2048
SAMPLER_SET[8]: 1876
Assign SAMPLER_SET[9]: 2038  LLC: 2048
SAMPLER_SET[9]: 2038
Assign SAMPLER_SET[10]: 701  LLC: 2048
SAMPLER_SET[10]: 701
Assign SAMPLER_SET[11]: 479  LLC: 2048
SAMPLER_SET[11]: 479
Assign SAMPLER_SET[12]: 892  LLC: 2048
SAMPLER_SET[12]: 892
Assign SAMPLER_SET[13]: 1820  LLC: 2048
SAMPLER_SET[13]: 1820
Assign SAMPLER_SET[14]: 1505  LLC: 2048
SAMPLER_SET[14]: 1505
Assign SAMPLER_SET[15]: 1159  LLC: 2048
SAMPLER_SET[15]: 1159
Assign SAMPLER_SET[16]: 513  LLC: 2048
SAMPLER_SET[16]: 513
Assign SAMPLER_SET[17]: 703  LLC: 2048
SAMPLER_SET[17]: 703
Assign SAMPLER_SET[18]: 561  LLC: 2048
SAMPLER_SET[18]: 561
Assign SAMPLER_SET[19]: 990  LLC: 2048
SAMPLER_SET[19]: 990
Assign SAMPLER_SET[20]: 342  LLC: 2048
SAMPLER_SET[20]: 342
Assign SAMPLER_SET[21]: 882  LLC: 2048
SAMPLER_SET[21]: 882
Assign SAMPLER_SET[22]: 15  LLC: 2048
SAMPLER_SET[22]: 15
Assign SAMPLER_SET[23]: 71  LLC: 2048
SAMPLER_SET[23]: 71
Assign SAMPLER_SET[24]: 1127  LLC: 2048
SAMPLER_SET[24]: 1127
Assign SAMPLER_SET[25]: 1382  LLC: 2048
SAMPLER_SET[25]: 1382
Assign SAMPLER_SET[26]: 647  LLC: 2048
SAMPLER_SET[26]: 647
Assign SAMPLER_SET[27]: 857  LLC: 2048
SAMPLER_SET[27]: 857
Assign SAMPLER_SET[28]: 1450  LLC: 2048
SAMPLER_SET[28]: 1450
Assign SAMPLER_SET[29]: 1160  LLC: 2048
SAMPLER_SET[29]: 1160
Assign SAMPLER_SET[30]: 1852  LLC: 2048
SAMPLER_SET[30]: 1852
Assign SAMPLER_SET[31]: 1881  LLC: 2048
SAMPLER_SET[31]: 1881
Assign SAMPLER_SET[32]: 1770  LLC: 2048
SAMPLER_SET[32]: 1770
Assign SAMPLER_SET[33]: 1622  LLC: 2048
SAMPLER_SET[33]: 1622
Assign SAMPLER_SET[34]: 275  LLC: 2048
SAMPLER_SET[34]: 275
Assign SAMPLER_SET[35]: 635  LLC: 2048
SAMPLER_SET[35]: 635
Assign SAMPLER_SET[36]: 466  LLC: 2048
SAMPLER_SET[36]: 466
Assign SAMPLER_SET[37]: 1413  LLC: 2048
SAMPLER_SET[37]: 1413
Assign SAMPLER_SET[38]: 417  LLC: 2048
SAMPLER_SET[38]: 417
Assign SAMPLER_SET[39]: 472  LLC: 2048
SAMPLER_SET[39]: 472
Assign SAMPLER_SET[40]: 1340  LLC: 2048
SAMPLER_SET[40]: 1340
Assign SAMPLER_SET[41]: 852  LLC: 2048
SAMPLER_SET[41]: 852
Assign SAMPLER_SET[42]: 1365  LLC: 2048
SAMPLER_SET[42]: 1365
Assign SAMPLER_SET[43]: 47  LLC: 2048
SAMPLER_SET[43]: 47
Assign SAMPLER_SET[44]: 823  LLC: 2048
SAMPLER_SET[44]: 823
Assign SAMPLER_SET[45]: 686  LLC: 2048
SAMPLER_SET[45]: 686
Assign SAMPLER_SET[46]: 1637  LLC: 2048
SAMPLER_SET[46]: 1637
Assign SAMPLER_SET[47]: 1115  LLC: 2048
SAMPLER_SET[47]: 1115
Assign SAMPLER_SET[48]: 986  LLC: 2048
SAMPLER_SET[48]: 986
Assign SAMPLER_SET[49]: 258  LLC: 2048
SAMPLER_SET[49]: 258
Assign SAMPLER_SET[50]: 633  LLC: 2048
SAMPLER_SET[50]: 633
Assign SAMPLER_SET[51]: 920  LLC: 2048
SAMPLER_SET[51]: 920
Assign SAMPLER_SET[52]: 204  LLC: 2048
SAMPLER_SET[52]: 204
Assign SAMPLER_SET[53]: 227  LLC: 2048
SAMPLER_SET[53]: 227
Assign SAMPLER_SET[54]: 1818  LLC: 2048
SAMPLER_SET[54]: 1818
Assign SAMPLER_SET[55]: 886  LLC: 2048
SAMPLER_SET[55]: 886
Assign SAMPLER_SET[56]: 1422  LLC: 2048
SAMPLER_SET[56]: 1422
Assign SAMPLER_SET[57]: 607  LLC: 2048
SAMPLER_SET[57]: 607
Assign SAMPLER_SET[58]: 217  LLC: 2048
SAMPLER_SET[58]: 217
Assign SAMPLER_SET[59]: 1945  LLC: 2048
SAMPLER_SET[59]: 1945
Assign SAMPLER_SET[60]: 143  LLC: 2048
SAMPLER_SET[60]: 143
Assign SAMPLER_SET[61]: 1311  LLC: 2048
SAMPLER_SET[61]: 1311
Assign SAMPLER_SET[62]: 319  LLC: 2048
SAMPLER_SET[62]: 319
Assign SAMPLER_SET[63]: 1846  LLC: 2048
SAMPLER_SET[63]: 1846
Assign SAMPLER_SET[64]: 238  LLC: 2048
SAMPLER_SET[64]: 238
Assign SAMPLER_SET[65]: 67  LLC: 2048
SAMPLER_SET[65]: 67
Assign SAMPLER_SET[66]: 1912  LLC: 2048
SAMPLER_SET[66]: 1912
Assign SAMPLER_SET[67]: 1613  LLC: 2048
SAMPLER_SET[67]: 1613
Assign SAMPLER_SET[68]: 1293  LLC: 2048
SAMPLER_SET[68]: 1293
Assign SAMPLER_SET[69]: 1018  LLC: 2048
SAMPLER_SET[69]: 1018
Assign SAMPLER_SET[70]: 1982  LLC: 2048
SAMPLER_SET[70]: 1982
Assign SAMPLER_SET[71]: 1702  LLC: 2048
SAMPLER_SET[71]: 1702
Assign SAMPLER_SET[72]: 1498  LLC: 2048
SAMPLER_SET[72]: 1498
Assign SAMPLER_SET[73]: 228  LLC: 2048
SAMPLER_SET[73]: 228
Assign SAMPLER_SET[74]: 1414  LLC: 2048
SAMPLER_SET[74]: 1414
Assign SAMPLER_SET[75]: 1166  LLC: 2048
SAMPLER_SET[75]: 1166
Assign SAMPLER_SET[76]: 732  LLC: 2048
SAMPLER_SET[76]: 732
Assign SAMPLER_SET[77]: 297  LLC: 2048
SAMPLER_SET[77]: 297
Assign SAMPLER_SET[78]: 1133  LLC: 2048
SAMPLER_SET[78]: 1133
Assign SAMPLER_SET[79]: 846  LLC: 2048
SAMPLER_SET[79]: 846
Assign SAMPLER_SET[80]: 767  LLC: 2048
SAMPLER_SET[80]: 767
Assign SAMPLER_SET[81]: 1878  LLC: 2048
SAMPLER_SET[81]: 1878
Assign SAMPLER_SET[82]: 993  LLC: 2048
SAMPLER_SET[82]: 993
Assign SAMPLER_SET[83]: 1392  LLC: 2048
SAMPLER_SET[83]: 1392
Assign SAMPLER_SET[84]: 1568  LLC: 2048
SAMPLER_SET[84]: 1568
Assign SAMPLER_SET[85]: 1787  LLC: 2048
SAMPLER_SET[85]: 1787
Assign SAMPLER_SET[86]: 399  LLC: 2048
SAMPLER_SET[86]: 399
Assign SAMPLER_SET[87]: 1201  LLC: 2048
SAMPLER_SET[87]: 1201
Assign SAMPLER_SET[88]: 856  LLC: 2048
SAMPLER_SET[88]: 856
Assign SAMPLER_SET[89]: 773  LLC: 2048
SAMPLER_SET[89]: 773
Assign SAMPLER_SET[90]: 1680  LLC: 2048
SAMPLER_SET[90]: 1680
Assign SAMPLER_SET[91]: 1477  LLC: 2048
SAMPLER_SET[91]: 1477
Assign SAMPLER_SET[92]: 9  LLC: 2048
SAMPLER_SET[92]: 9
Assign SAMPLER_SET[93]: 1500  LLC: 2048
SAMPLER_SET[93]: 1500
Assign SAMPLER_SET[94]: 851  LLC: 2048
SAMPLER_SET[94]: 851
Assign SAMPLER_SET[95]: 973  LLC: 2048
SAMPLER_SET[95]: 973
Assign SAMPLER_SET[96]: 938  LLC: 2048
SAMPLER_SET[96]: 938
Assign SAMPLER_SET[97]: 1851  LLC: 2048
SAMPLER_SET[97]: 1851
Assign SAMPLER_SET[98]: 1608  LLC: 2048
SAMPLER_SET[98]: 1608
Assign SAMPLER_SET[99]: 1945  LLC: 2048
Assign SAMPLER_SET[99]: 1106  LLC: 2048
SAMPLER_SET[99]: 1106
Assign SAMPLER_SET[100]: 979  LLC: 2048
SAMPLER_SET[100]: 979
Assign SAMPLER_SET[101]: 338  LLC: 2048
SAMPLER_SET[101]: 338
Assign SAMPLER_SET[102]: 1693  LLC: 2048
SAMPLER_SET[102]: 1693
Assign SAMPLER_SET[103]: 6  LLC: 2048
SAMPLER_SET[103]: 6
Assign SAMPLER_SET[104]: 671  LLC: 2048
SAMPLER_SET[104]: 671
Assign SAMPLER_SET[105]: 490  LLC: 2048
SAMPLER_SET[105]: 490
Assign SAMPLER_SET[106]: 1461  LLC: 2048
SAMPLER_SET[106]: 1461
Assign SAMPLER_SET[107]: 1730  LLC: 2048
SAMPLER_SET[107]: 1730
Assign SAMPLER_SET[108]: 1030  LLC: 2048
SAMPLER_SET[108]: 1030
Assign SAMPLER_SET[109]: 19  LLC: 2048
SAMPLER_SET[109]: 19
Assign SAMPLER_SET[110]: 920  LLC: 2048
Assign SAMPLER_SET[110]: 329  LLC: 2048
SAMPLER_SET[110]: 329
Assign SAMPLER_SET[111]: 1714  LLC: 2048
SAMPLER_SET[111]: 1714
Assign SAMPLER_SET[112]: 1  LLC: 2048
SAMPLER_SET[112]: 1
Assign SAMPLER_SET[113]: 1822  LLC: 2048
SAMPLER_SET[113]: 1822
Assign SAMPLER_SET[114]: 172  LLC: 2048
SAMPLER_SET[114]: 172
Assign SAMPLER_SET[115]: 1586  LLC: 2048
SAMPLER_SET[115]: 1586
Assign SAMPLER_SET[116]: 648  LLC: 2048
SAMPLER_SET[116]: 648
Assign SAMPLER_SET[117]: 1329  LLC: 2048
SAMPLER_SET[117]: 1329
Assign SAMPLER_SET[118]: 668  LLC: 2048
SAMPLER_SET[118]: 668
Assign SAMPLER_SET[119]: 1874  LLC: 2048
SAMPLER_SET[119]: 1874
Assign SAMPLER_SET[120]: 70  LLC: 2048
SAMPLER_SET[120]: 70
Assign SAMPLER_SET[121]: 661  LLC: 2048
SAMPLER_SET[121]: 661
Assign SAMPLER_SET[122]: 1649  LLC: 2048
SAMPLER_SET[122]: 1649
Assign SAMPLER_SET[123]: 1590  LLC: 2048
SAMPLER_SET[123]: 1590
Assign SAMPLER_SET[124]: 911  LLC: 2048
SAMPLER_SET[124]: 911
Assign SAMPLER_SET[125]: 1367  LLC: 2048
SAMPLER_SET[125]: 1367
Assign SAMPLER_SET[126]: 1782  LLC: 2048
SAMPLER_SET[126]: 1782
Assign SAMPLER_SET[127]: 569  LLC: 2048
SAMPLER_SET[127]: 569
Heartbeat CPU 0 instructions: 10000002 cycles: 3522073 heartbeat IPC: 2.83924 cumulative IPC: 2.83924 (Simulation time: 0 hr 0 min 26 sec) 
Heartbeat CPU 0 instructions: 20000003 cycles: 7041214 heartbeat IPC: 2.8416 cumulative IPC: 2.84042 (Simulation time: 0 hr 0 min 52 sec) 
Heartbeat CPU 0 instructions: 30000001 cycles: 10554078 heartbeat IPC: 2.84668 cumulative IPC: 2.8425 (Simulation time: 0 hr 1 min 18 sec) 
Heartbeat CPU 0 instructions: 40000000 cycles: 14079679 heartbeat IPC: 2.8364 cumulative IPC: 2.84097 (Simulation time: 0 hr 1 min 44 sec) 
Heartbeat CPU 0 instructions: 50000002 cycles: 17606278 heartbeat IPC: 2.83559 cumulative IPC: 2.8399 (Simulation time: 0 hr 2 min 10 sec) 
Heartbeat CPU 0 instructions: 60000002 cycles: 21141986 heartbeat IPC: 2.82829 cumulative IPC: 2.83795 (Simulation time: 0 hr 2 min 36 sec) 
Heartbeat CPU 0 instructions: 70000003 cycles: 24674219 heartbeat IPC: 2.83107 cumulative IPC: 2.83697 (Simulation time: 0 hr 3 min 1 sec) 
Heartbeat CPU 0 instructions: 80000000 cycles: 28196488 heartbeat IPC: 2.83908 cumulative IPC: 2.83723 (Simulation time: 0 hr 3 min 26 sec) 
Heartbeat CPU 0 instructions: 90000000 cycles: 31724166 heartbeat IPC: 2.83473 cumulative IPC: 2.83695 (Simulation time: 0 hr 3 min 54 sec) 
Heartbeat CPU 0 instructions: 100000000 cycles: 35244462 heartbeat IPC: 2.84067 cumulative IPC: 2.83733 (Simulation time: 0 hr 4 min 23 sec) 

Warmup complete CPU 0 instructions: 100000004 cycles: 35244463 (Simulation time: 0 hr 4 min 23 sec) 

Heartbeat CPU 0 instructions: 110000000 cycles: 62060594 heartbeat IPC: 0.37291 cumulative IPC: 0.37291 (Simulation time: 0 hr 5 min 11 sec) 
Heartbeat CPU 0 instructions: 120000001 cycles: 89247569 heartbeat IPC: 0.367823 cumulative IPC: 0.370349 (Simulation time: 0 hr 6 min 2 sec) 
Heartbeat CPU 0 instructions: 130000001 cycles: 115535350 heartbeat IPC: 0.380405 cumulative IPC: 0.373641 (Simulation time: 0 hr 6 min 49 sec) 
Heartbeat CPU 0 instructions: 140000002 cycles: 142607429 heartbeat IPC: 0.369384 cumulative IPC: 0.372568 (Simulation time: 0 hr 7 min 37 sec) 
Heartbeat CPU 0 instructions: 150000001 cycles: 169586646 heartbeat IPC: 0.370656 cumulative IPC: 0.372184 (Simulation time: 0 hr 8 min 27 sec) 
Heartbeat CPU 0 instructions: 160000001 cycles: 196870167 heartbeat IPC: 0.366522 cumulative IPC: 0.371228 (Simulation time: 0 hr 9 min 18 sec) 
Heartbeat CPU 0 instructions: 170000002 cycles: 224274442 heartbeat IPC: 0.364907 cumulative IPC: 0.370312 (Simulation time: 0 hr 10 min 7 sec) 
Heartbeat CPU 0 instructions: 180000000 cycles: 251328628 heartbeat IPC: 0.369628 cumulative IPC: 0.370226 (Simulation time: 0 hr 10 min 58 sec) 
Heartbeat CPU 0 instructions: 190000002 cycles: 278375035 heartbeat IPC: 0.369735 cumulative IPC: 0.370171 (Simulation time: 0 hr 11 min 47 sec) 
Heartbeat CPU 0 instructions: 200000002 cycles: 305863939 heartbeat IPC: 0.363783 cumulative IPC: 0.369523 (Simulation time: 0 hr 12 min 38 sec) 
Heartbeat CPU 0 instructions: 210000001 cycles: 333419944 heartbeat IPC: 0.362897 cumulative IPC: 0.36891 (Simulation time: 0 hr 13 min 28 sec) 
Heartbeat CPU 0 instructions: 220000000 cycles: 361218420 heartbeat IPC: 0.359732 cumulative IPC: 0.368128 (Simulation time: 0 hr 14 min 19 sec) 
Heartbeat CPU 0 instructions: 230000000 cycles: 388417243 heartbeat IPC: 0.367663 cumulative IPC: 0.368092 (Simulation time: 0 hr 15 min 7 sec) 
Heartbeat CPU 0 instructions: 240000001 cycles: 415901231 heartbeat IPC: 0.363848 cumulative IPC: 0.367785 (Simulation time: 0 hr 15 min 56 sec) 
Heartbeat CPU 0 instructions: 250000000 cycles: 442437907 heartbeat IPC: 0.376837 cumulative IPC: 0.368375 (Simulation time: 0 hr 16 min 43 sec) 
Heartbeat CPU 0 instructions: 260000002 cycles: 469176799 heartbeat IPC: 0.373987 cumulative IPC: 0.368721 (Simulation time: 0 hr 17 min 31 sec) 
Heartbeat CPU 0 instructions: 270000001 cycles: 495842772 heartbeat IPC: 0.37501 cumulative IPC: 0.369085 (Simulation time: 0 hr 18 min 19 sec) 
Heartbeat CPU 0 instructions: 280000002 cycles: 521863261 heartbeat IPC: 0.384313 cumulative IPC: 0.369899 (Simulation time: 0 hr 19 min 5 sec) 
Heartbeat CPU 0 instructions: 290000000 cycles: 548352474 heartbeat IPC: 0.377512 cumulative IPC: 0.370292 (Simulation time: 0 hr 19 min 53 sec) 
Heartbeat CPU 0 instructions: 300000003 cycles: 575130534 heartbeat IPC: 0.37344 cumulative IPC: 0.370449 (Simulation time: 0 hr 20 min 41 sec) 
Heartbeat CPU 0 instructions: 310000001 cycles: 602222199 heartbeat IPC: 0.369117 cumulative IPC: 0.370385 (Simulation time: 0 hr 21 min 30 sec) 
Heartbeat CPU 0 instructions: 320000001 cycles: 629012394 heartbeat IPC: 0.373271 cumulative IPC: 0.370515 (Simulation time: 0 hr 22 min 19 sec) 
Heartbeat CPU 0 instructions: 330000000 cycles: 655668097 heartbeat IPC: 0.375154 cumulative IPC: 0.370714 (Simulation time: 0 hr 23 min 8 sec) 
Heartbeat CPU 0 instructions: 340000002 cycles: 682125756 heartbeat IPC: 0.377962 cumulative IPC: 0.371011 (Simulation time: 0 hr 23 min 54 sec) 
Heartbeat CPU 0 instructions: 350000001 cycles: 707936884 heartbeat IPC: 0.38743 cumulative IPC: 0.371641 (Simulation time: 0 hr 24 min 39 sec) 
Heartbeat CPU 0 instructions: 360000001 cycles: 734897333 heartbeat IPC: 0.370914 cumulative IPC: 0.371613 (Simulation time: 0 hr 25 min 25 sec) 
Heartbeat CPU 0 instructions: 370000002 cycles: 760824047 heartbeat IPC: 0.385703 cumulative IPC: 0.372116 (Simulation time: 0 hr 26 min 10 sec) 
Heartbeat CPU 0 instructions: 380000002 cycles: 786881597 heartbeat IPC: 0.383766 cumulative IPC: 0.37252 (Simulation time: 0 hr 26 min 54 sec) 
Heartbeat CPU 0 instructions: 390000003 cycles: 813196992 heartbeat IPC: 0.380006 cumulative IPC: 0.372773 (Simulation time: 0 hr 27 min 39 sec) 
Heartbeat CPU 0 instructions: 400000001 cycles: 839014984 heartbeat IPC: 0.387327 cumulative IPC: 0.373241 (Simulation time: 0 hr 28 min 26 sec) 
Heartbeat CPU 0 instructions: 410000002 cycles: 865324634 heartbeat IPC: 0.380089 cumulative IPC: 0.373458 (Simulation time: 0 hr 29 min 15 sec) 
Heartbeat CPU 0 instructions: 420000002 cycles: 891847494 heartbeat IPC: 0.377033 cumulative IPC: 0.373569 (Simulation time: 0 hr 30 min 2 sec) 
Heartbeat CPU 0 instructions: 430000000 cycles: 919236995 heartbeat IPC: 0.365103 cumulative IPC: 0.373306 (Simulation time: 0 hr 30 min 51 sec) 
Heartbeat CPU 0 instructions: 440000000 cycles: 945976929 heartbeat IPC: 0.373973 cumulative IPC: 0.373326 (Simulation time: 0 hr 31 min 39 sec) 
Heartbeat CPU 0 instructions: 450000000 cycles: 972535965 heartbeat IPC: 0.37652 cumulative IPC: 0.373416 (Simulation time: 0 hr 32 min 28 sec) 
Heartbeat CPU 0 instructions: 460000003 cycles: 998350532 heartbeat IPC: 0.387378 cumulative IPC: 0.373791 (Simulation time: 0 hr 33 min 16 sec) 
Heartbeat CPU 0 instructions: 470000000 cycles: 1023544984 heartbeat IPC: 0.396913 cumulative IPC: 0.37438 (Simulation time: 0 hr 34 min 4 sec) 
Heartbeat CPU 0 instructions: 480000000 cycles: 1047916290 heartbeat IPC: 0.410319 cumulative IPC: 0.375245 (Simulation time: 0 hr 34 min 50 sec) 
Heartbeat CPU 0 instructions: 490000001 cycles: 1071156104 heartbeat IPC: 0.430296 cumulative IPC: 0.37648 (Simulation time: 0 hr 35 min 35 sec) 
Heartbeat CPU 0 instructions: 500000001 cycles: 1093456708 heartbeat IPC: 0.448418 cumulative IPC: 0.377996 (Simulation time: 0 hr 36 min 19 sec) 
Heartbeat CPU 0 instructions: 510000000 cycles: 1115342443 heartbeat IPC: 0.456919 cumulative IPC: 0.379595 (Simulation time: 0 hr 37 min 3 sec) 
Heartbeat CPU 0 instructions: 520000001 cycles: 1136081227 heartbeat IPC: 0.482188 cumulative IPC: 0.381528 (Simulation time: 0 hr 37 min 46 sec) 
Heartbeat CPU 0 instructions: 530000001 cycles: 1155806607 heartbeat IPC: 0.506961 cumulative IPC: 0.383736 (Simulation time: 0 hr 38 min 29 sec) 
Heartbeat CPU 0 instructions: 540000001 cycles: 1174703470 heartbeat IPC: 0.529188 cumulative IPC: 0.386148 (Simulation time: 0 hr 39 min 10 sec) 
Heartbeat CPU 0 instructions: 550000000 cycles: 1192964036 heartbeat IPC: 0.547628 cumulative IPC: 0.388695 (Simulation time: 0 hr 39 min 50 sec) 
Heartbeat CPU 0 instructions: 560000003 cycles: 1210963214 heartbeat IPC: 0.555581 cumulative IPC: 0.39125 (Simulation time: 0 hr 40 min 29 sec) 
Heartbeat CPU 0 instructions: 570000001 cycles: 1228023536 heartbeat IPC: 0.586155 cumulative IPC: 0.394038 (Simulation time: 0 hr 41 min 8 sec) 
Heartbeat CPU 0 instructions: 580000000 cycles: 1245158138 heartbeat IPC: 0.583614 cumulative IPC: 0.396723 (Simulation time: 0 hr 41 min 46 sec) 
Heartbeat CPU 0 instructions: 590000000 cycles: 1261503632 heartbeat IPC: 0.611789 cumulative IPC: 0.399589 (Simulation time: 0 hr 42 min 24 sec) 
Heartbeat CPU 0 instructions: 600000002 cycles: 1277618821 heartbeat IPC: 0.620533 cumulative IPC: 0.402455 (Simulation time: 0 hr 43 min 2 sec) 
Heartbeat CPU 0 instructions: 610000002 cycles: 1292931965 heartbeat IPC: 0.653034 cumulative IPC: 0.405506 (Simulation time: 0 hr 43 min 38 sec) 
Heartbeat CPU 0 instructions: 620000003 cycles: 1308423025 heartbeat IPC: 0.645534 cumulative IPC: 0.408427 (Simulation time: 0 hr 44 min 14 sec) 
Heartbeat CPU 0 instructions: 630000000 cycles: 1323867664 heartbeat IPC: 0.647474 cumulative IPC: 0.411292 (Simulation time: 0 hr 44 min 50 sec) 
Heartbeat CPU 0 instructions: 640000001 cycles: 1338959479 heartbeat IPC: 0.662611 cumulative IPC: 0.414201 (Simulation time: 0 hr 45 min 26 sec) 
Heartbeat CPU 0 instructions: 650000002 cycles: 1354036356 heartbeat IPC: 0.663267 cumulative IPC: 0.417048 (Simulation time: 0 hr 46 min 3 sec) 
Heartbeat CPU 0 instructions: 660000000 cycles: 1368474224 heartbeat IPC: 0.692623 cumulative IPC: 0.420033 (Simulation time: 0 hr 46 min 38 sec) 
Heartbeat CPU 0 instructions: 670000002 cycles: 1383325770 heartbeat IPC: 0.673331 cumulative IPC: 0.422823 (Simulation time: 0 hr 47 min 14 sec) 
Heartbeat CPU 0 instructions: 680000002 cycles: 1398132875 heartbeat IPC: 0.675351 cumulative IPC: 0.425567 (Simulation time: 0 hr 47 min 51 sec) 
Heartbeat CPU 0 instructions: 690000003 cycles: 1412570979 heartbeat IPC: 0.692612 cumulative IPC: 0.428366 (Simulation time: 0 hr 48 min 27 sec) 
Heartbeat CPU 0 instructions: 700000000 cycles: 1427008056 heartbeat IPC: 0.692661 cumulative IPC: 0.431108 (Simulation time: 0 hr 49 min 1 sec) 
Heartbeat CPU 0 instructions: 710000000 cycles: 1441290672 heartbeat IPC: 0.700152 cumulative IPC: 0.433841 (Simulation time: 0 hr 49 min 34 sec) 
Heartbeat CPU 0 instructions: 720000003 cycles: 1455831628 heartbeat IPC: 0.687713 cumulative IPC: 0.436439 (Simulation time: 0 hr 50 min 7 sec) 
Heartbeat CPU 0 instructions: 730000001 cycles: 1470398916 heartbeat IPC: 0.686469 cumulative IPC: 0.438977 (Simulation time: 0 hr 50 min 41 sec) 
Heartbeat CPU 0 instructions: 740000003 cycles: 1484727115 heartbeat IPC: 0.697925 cumulative IPC: 0.441537 (Simulation time: 0 hr 51 min 14 sec) 
Heartbeat CPU 0 instructions: 750000002 cycles: 1499094964 heartbeat IPC: 0.695998 cumulative IPC: 0.444034 (Simulation time: 0 hr 51 min 47 sec) 
Heartbeat CPU 0 instructions: 760000002 cycles: 1513431893 heartbeat IPC: 0.697499 cumulative IPC: 0.446493 (Simulation time: 0 hr 52 min 20 sec) 
Heartbeat CPU 0 instructions: 770000000 cycles: 1527591155 heartbeat IPC: 0.706251 cumulative IPC: 0.448957 (Simulation time: 0 hr 52 min 53 sec) 
Heartbeat CPU 0 instructions: 780000001 cycles: 1541878367 heartbeat IPC: 0.699927 cumulative IPC: 0.451337 (Simulation time: 0 hr 53 min 25 sec) 
Heartbeat CPU 0 instructions: 790000003 cycles: 1556025838 heartbeat IPC: 0.70684 cumulative IPC: 0.453714 (Simulation time: 0 hr 54 min 0 sec) 
Heartbeat CPU 0 instructions: 800000001 cycles: 1570213629 heartbeat IPC: 0.704831 cumulative IPC: 0.456035 (Simulation time: 0 hr 54 min 36 sec) 
Heartbeat CPU 0 instructions: 810000002 cycles: 1584574540 heartbeat IPC: 0.696335 cumulative IPC: 0.458263 (Simulation time: 0 hr 55 min 10 sec) 
Heartbeat CPU 0 instructions: 820000000 cycles: 1598915629 heartbeat IPC: 0.697297 cumulative IPC: 0.460455 (Simulation time: 0 hr 55 min 46 sec) 
Heartbeat CPU 0 instructions: 830000000 cycles: 1612885987 heartbeat IPC: 0.715801 cumulative IPC: 0.462716 (Simulation time: 0 hr 56 min 20 sec) 
Heartbeat CPU 0 instructions: 840000002 cycles: 1626742254 heartbeat IPC: 0.721695 cumulative IPC: 0.464971 (Simulation time: 0 hr 56 min 54 sec) 
Heartbeat CPU 0 instructions: 850000000 cycles: 1641077555 heartbeat IPC: 0.697578 cumulative IPC: 0.467047 (Simulation time: 0 hr 57 min 28 sec) 
Heartbeat CPU 0 instructions: 860000002 cycles: 1655875687 heartbeat IPC: 0.675761 cumulative IPC: 0.468953 (Simulation time: 0 hr 58 min 4 sec) 
Heartbeat CPU 0 instructions: 870000000 cycles: 1669835248 heartbeat IPC: 0.716355 cumulative IPC: 0.471066 (Simulation time: 0 hr 58 min 39 sec) 
Heartbeat CPU 0 instructions: 880000000 cycles: 1683947173 heartbeat IPC: 0.708621 cumulative IPC: 0.473099 (Simulation time: 0 hr 59 min 15 sec) 
Heartbeat CPU 0 instructions: 890000003 cycles: 1698228644 heartbeat IPC: 0.700208 cumulative IPC: 0.47505 (Simulation time: 0 hr 59 min 51 sec) 
Heartbeat CPU 0 instructions: 900000001 cycles: 1712350900 heartbeat IPC: 0.708102 cumulative IPC: 0.477012 (Simulation time: 1 hr 0 min 25 sec) 
Heartbeat CPU 0 instructions: 910000003 cycles: 1726252803 heartbeat IPC: 0.719326 cumulative IPC: 0.479004 (Simulation time: 1 hr 1 min 0 sec) 
Heartbeat CPU 0 instructions: 920000000 cycles: 1740547323 heartbeat IPC: 0.699569 cumulative IPC: 0.480853 (Simulation time: 1 hr 1 min 35 sec) 
Heartbeat CPU 0 instructions: 930000002 cycles: 1755041042 heartbeat IPC: 0.689954 cumulative IPC: 0.482615 (Simulation time: 1 hr 2 min 10 sec) 
Heartbeat CPU 0 instructions: 940000002 cycles: 1770011525 heartbeat IPC: 0.667981 cumulative IPC: 0.484215 (Simulation time: 1 hr 2 min 46 sec) 
Heartbeat CPU 0 instructions: 950000003 cycles: 1805512015 heartbeat IPC: 0.281686 cumulative IPC: 0.480153 (Simulation time: 1 hr 3 min 46 sec) 
Heartbeat CPU 0 instructions: 960000001 cycles: 1833277955 heartbeat IPC: 0.360153 cumulative IPC: 0.4783 (Simulation time: 1 hr 4 min 38 sec) 
Heartbeat CPU 0 instructions: 970000002 cycles: 1848757460 heartbeat IPC: 0.646016 cumulative IPC: 0.479732 (Simulation time: 1 hr 5 min 15 sec) 
Heartbeat CPU 0 instructions: 980000000 cycles: 1863764197 heartbeat IPC: 0.666367 cumulative IPC: 0.481264 (Simulation time: 1 hr 5 min 50 sec) 
Heartbeat CPU 0 instructions: 990000000 cycles: 1878716016 heartbeat IPC: 0.668815 cumulative IPC: 0.482785 (Simulation time: 1 hr 6 min 26 sec) 
Heartbeat CPU 0 instructions: 1000000003 cycles: 1892885532 heartbeat IPC: 0.705741 cumulative IPC: 0.484485 (Simulation time: 1 hr 7 min 0 sec) 
Heartbeat CPU 0 instructions: 1010000002 cycles: 1907634032 heartbeat IPC: 0.678035 cumulative IPC: 0.48601 (Simulation time: 1 hr 7 min 36 sec) 
Heartbeat CPU 0 instructions: 1020000003 cycles: 1921503648 heartbeat IPC: 0.721001 cumulative IPC: 0.487738 (Simulation time: 1 hr 8 min 11 sec) 
Heartbeat CPU 0 instructions: 1030000001 cycles: 1935807345 heartbeat IPC: 0.69912 cumulative IPC: 0.489329 (Simulation time: 1 hr 8 min 46 sec) 
Heartbeat CPU 0 instructions: 1040000003 cycles: 1949640945 heartbeat IPC: 0.722878 cumulative IPC: 0.491016 (Simulation time: 1 hr 9 min 21 sec) 
Heartbeat CPU 0 instructions: 1050000000 cycles: 1963705293 heartbeat IPC: 0.711017 cumulative IPC: 0.492621 (Simulation time: 1 hr 9 min 56 sec) 
Heartbeat CPU 0 instructions: 1060000001 cycles: 1977758061 heartbeat IPC: 0.711604 cumulative IPC: 0.494205 (Simulation time: 1 hr 10 min 30 sec) 
Heartbeat CPU 0 instructions: 1070000003 cycles: 1991883843 heartbeat IPC: 0.707926 cumulative IPC: 0.495748 (Simulation time: 1 hr 11 min 6 sec) 
Heartbeat CPU 0 instructions: 1080000000 cycles: 2005800375 heartbeat IPC: 0.71857 cumulative IPC: 0.497322 (Simulation time: 1 hr 11 min 41 sec) 
Heartbeat CPU 0 instructions: 1090000002 cycles: 2020538202 heartbeat IPC: 0.678526 cumulative IPC: 0.498667 (Simulation time: 1 hr 12 min 17 sec) 
Heartbeat CPU 0 instructions: 1100000000 cycles: 2034826532 heartbeat IPC: 0.699872 cumulative IPC: 0.500104 (Simulation time: 1 hr 12 min 53 sec) 
Finished CPU 0 instructions: 1000000000 cycles: 1999582318 cumulative IPC: 0.500104 (Simulation time: 1 hr 12 min 53 sec) 

ChampSim completed all CPUs

Region of Interest Statistics

CPU 0 cumulative IPC: 0.500104 instructions: 1000000000 cycles: 1999582318
L1D TOTAL     ACCESS:  250386919  HIT:  195157914  MISS:   55229005
L1D LOAD      ACCESS:   85971584  HIT:   77596480  MISS:    8375104
L1D RFO       ACCESS:  164415335  HIT:  117561434  MISS:   46853901
L1D PREFETCH  ACCESS:          0  HIT:          0  MISS:          0
L1D WRITEBACK ACCESS:          0  HIT:          0  MISS:          0
L1D PREFETCH  REQUESTED:          0  ISSUED:          0  USEFUL:          0  USELESS:          0
L1D AVERAGE MISS LATENCY: 343.245 cycles
L1I TOTAL     ACCESS:  154329158  HIT:  154329155  MISS:          3
L1I LOAD      ACCESS:  154329158  HIT:  154329155  MISS:          3
L1I RFO       ACCESS:          0  HIT:          0  MISS:          0
L1I PREFETCH  ACCESS:          0  HIT:          0  MISS:          0
L1I WRITEBACK ACCESS:          0  HIT:          0  MISS:          0
L1I PREFETCH  REQUESTED:          0  ISSUED:          0  USEFUL:          0  USELESS:          0
L1I AVERAGE MISS LATENCY: 538.333 cycles
L2C TOTAL     ACCESS:  102082721  HIT:   58166830  MISS:   43915891
L2C LOAD      ACCESS:    8375107  HIT:       5081  MISS:    8370026
L2C RFO       ACCESS:   46853710  HIT:   11315765  MISS:   35537945
L2C PREFETCH  ACCESS:          0  HIT:          0  MISS:          0
L2C WRITEBACK ACCESS:   46853904  HIT:   46845984  MISS:       7920
L2C PREFETCH  REQUESTED:          0  ISSUED:          0  USEFUL:          0  USELESS:          0
L2C AVERAGE MISS LATENCY: 414.471 cycles
LLC TOTAL     ACCESS:   79451259  HIT:   28164311  MISS:   51286948
LLC LOAD      ACCESS:    8370026  HIT:       5095  MISS:    8364931
LLC RFO       ACCESS:   35534171  HIT:    8982097  MISS:   26552074
LLC PREFETCH  ACCESS:          0  HIT:          0  MISS:          0
LLC WRITEBACK ACCESS:   35547062  HIT:   19177119  MISS:   16369943
LLC PREFETCH  REQUESTED:          0  ISSUED:          0  USEFUL:          0  USELESS:          0
LLC AVERAGE MISS LATENCY: 319.459 cycles
Major fault: 0 Minor fault: 304584
==============================
Perceptron RRIP Stats:
   Num Updates:          4330420
   Num Primary Trains:   377599
   Num Secondary Trains: 348364
==============================
primary_perceptron #0: -1 -9 1 1 5 -1 -1 -1 -3 -5 -1 1 1 1 1 -23 
secondary_perceptron #0: -2 -12 0 0 6 -4 -4 2 -2 -6 -2 -2 2 -2 2 -2 -2 2 -4 -10 -36 


DRAM Statistics
 CHANNEL 0
 RQ ROW_BUFFER_HIT:    1848439  ROW_BUFFER_MISS:   33021019
 DBUS_CONGESTED:   33885563
 WQ ROW_BUFFER_HIT:    5924101  ROW_BUFFER_MISS:   20638778  FULL:      14579

 AVG_CONGESTED_CYCLE: 6

CPU 0 Branch Prediction Accuracy: 97.1481% MPKI: 0.40653 Average ROB Occupancy at Mispredict: 246.121

Branch types
NOT_BRANCH: 985745443 98.5745%
BRANCH_DIRECT_JUMP: 1582739 0.158274%
BRANCH_INDIRECT: 0 0%
BRANCH_CONDITIONAL: 12671818 1.26718%
BRANCH_DIRECT_CALL: 2 2e-07%
BRANCH_INDIRECT_CALL: 0 0%
BRANCH_RETURN: 2 2e-07%
BRANCH_OTHER: 0 0%

