
*** ChampSim Multicore Out-of-Order Simulator ***

Warmup Instructions: 100000000
Simulation Instructions: 1000000000
Number of CPUs: 1
LLC sets: 2048
LLC ways: 16
Off-chip DRAM Size: 4096 MB Channels: 1 Width: 64-bit Data Rate: 3200 MT/s

CPU 0 runs /scratch/user/kevin.weston/dpc3-traces/619.champsimtrace.xz
CPU 0 Bimodal branch predictor
Initialize DRRIP state
Assign rand_sets[0]: 454  LLC: 2048
rand_sets[0]: 454
Assign rand_sets[1]: 1662  LLC: 2048
rand_sets[1]: 1662
Assign rand_sets[2]: 1921  LLC: 2048
rand_sets[2]: 1921
Assign rand_sets[3]: 1131  LLC: 2048
rand_sets[3]: 1131
Assign rand_sets[4]: 331  LLC: 2048
rand_sets[4]: 331
Assign rand_sets[5]: 1531  LLC: 2048
rand_sets[5]: 1531
Assign rand_sets[6]: 482  LLC: 2048
rand_sets[6]: 482
Assign rand_sets[7]: 1275  LLC: 2048
rand_sets[7]: 1275
Assign rand_sets[8]: 1876  LLC: 2048
rand_sets[8]: 1876
Assign rand_sets[9]: 2038  LLC: 2048
rand_sets[9]: 2038
Assign rand_sets[10]: 701  LLC: 2048
rand_sets[10]: 701
Assign rand_sets[11]: 479  LLC: 2048
rand_sets[11]: 479
Assign rand_sets[12]: 892  LLC: 2048
rand_sets[12]: 892
Assign rand_sets[13]: 1820  LLC: 2048
rand_sets[13]: 1820
Assign rand_sets[14]: 1505  LLC: 2048
rand_sets[14]: 1505
Assign rand_sets[15]: 1159  LLC: 2048
rand_sets[15]: 1159
Assign rand_sets[16]: 513  LLC: 2048
rand_sets[16]: 513
Assign rand_sets[17]: 703  LLC: 2048
rand_sets[17]: 703
Assign rand_sets[18]: 561  LLC: 2048
rand_sets[18]: 561
Assign rand_sets[19]: 990  LLC: 2048
rand_sets[19]: 990
Assign rand_sets[20]: 342  LLC: 2048
rand_sets[20]: 342
Assign rand_sets[21]: 882  LLC: 2048
rand_sets[21]: 882
Assign rand_sets[22]: 15  LLC: 2048
rand_sets[22]: 15
Assign rand_sets[23]: 71  LLC: 2048
rand_sets[23]: 71
Assign rand_sets[24]: 1127  LLC: 2048
rand_sets[24]: 1127
Assign rand_sets[25]: 1382  LLC: 2048
rand_sets[25]: 1382
Assign rand_sets[26]: 647  LLC: 2048
rand_sets[26]: 647
Assign rand_sets[27]: 857  LLC: 2048
rand_sets[27]: 857
Assign rand_sets[28]: 1450  LLC: 2048
rand_sets[28]: 1450
Assign rand_sets[29]: 1160  LLC: 2048
rand_sets[29]: 1160
Assign rand_sets[30]: 1852  LLC: 2048
rand_sets[30]: 1852
Assign rand_sets[31]: 1881  LLC: 2048
rand_sets[31]: 1881
Assign rand_sets[32]: 1770  LLC: 2048
rand_sets[32]: 1770
Assign rand_sets[33]: 1622  LLC: 2048
rand_sets[33]: 1622
Assign rand_sets[34]: 275  LLC: 2048
rand_sets[34]: 275
Assign rand_sets[35]: 635  LLC: 2048
rand_sets[35]: 635
Assign rand_sets[36]: 466  LLC: 2048
rand_sets[36]: 466
Assign rand_sets[37]: 1413  LLC: 2048
rand_sets[37]: 1413
Assign rand_sets[38]: 417  LLC: 2048
rand_sets[38]: 417
Assign rand_sets[39]: 472  LLC: 2048
rand_sets[39]: 472
Assign rand_sets[40]: 1340  LLC: 2048
rand_sets[40]: 1340
Assign rand_sets[41]: 852  LLC: 2048
rand_sets[41]: 852
Assign rand_sets[42]: 1365  LLC: 2048
rand_sets[42]: 1365
Assign rand_sets[43]: 47  LLC: 2048
rand_sets[43]: 47
Assign rand_sets[44]: 823  LLC: 2048
rand_sets[44]: 823
Assign rand_sets[45]: 686  LLC: 2048
rand_sets[45]: 686
Assign rand_sets[46]: 1637  LLC: 2048
rand_sets[46]: 1637
Assign rand_sets[47]: 1115  LLC: 2048
rand_sets[47]: 1115
Assign rand_sets[48]: 986  LLC: 2048
rand_sets[48]: 986
Assign rand_sets[49]: 258  LLC: 2048
rand_sets[49]: 258
Assign rand_sets[50]: 633  LLC: 2048
rand_sets[50]: 633
Assign rand_sets[51]: 920  LLC: 2048
rand_sets[51]: 920
Assign rand_sets[52]: 204  LLC: 2048
rand_sets[52]: 204
Assign rand_sets[53]: 227  LLC: 2048
rand_sets[53]: 227
Assign rand_sets[54]: 1818  LLC: 2048
rand_sets[54]: 1818
Assign rand_sets[55]: 886  LLC: 2048
rand_sets[55]: 886
Assign rand_sets[56]: 1422  LLC: 2048
rand_sets[56]: 1422
Assign rand_sets[57]: 607  LLC: 2048
rand_sets[57]: 607
Assign rand_sets[58]: 217  LLC: 2048
rand_sets[58]: 217
Assign rand_sets[59]: 1945  LLC: 2048
rand_sets[59]: 1945
Assign rand_sets[60]: 143  LLC: 2048
rand_sets[60]: 143
Assign rand_sets[61]: 1311  LLC: 2048
rand_sets[61]: 1311
Assign rand_sets[62]: 319  LLC: 2048
rand_sets[62]: 319
Assign rand_sets[63]: 1846  LLC: 2048
rand_sets[63]: 1846
Heartbeat CPU 0 instructions: 10000002 cycles: 3522057 heartbeat IPC: 2.83925 cumulative IPC: 2.83925 (Simulation time: 0 hr 0 min 25 sec) 
Heartbeat CPU 0 instructions: 20000003 cycles: 7041358 heartbeat IPC: 2.84147 cumulative IPC: 2.84036 (Simulation time: 0 hr 0 min 50 sec) 
Heartbeat CPU 0 instructions: 30000001 cycles: 10554169 heartbeat IPC: 2.84672 cumulative IPC: 2.84248 (Simulation time: 0 hr 1 min 15 sec) 
Heartbeat CPU 0 instructions: 40000000 cycles: 14079949 heartbeat IPC: 2.83625 cumulative IPC: 2.84092 (Simulation time: 0 hr 1 min 40 sec) 
Heartbeat CPU 0 instructions: 50000002 cycles: 17606682 heartbeat IPC: 2.83549 cumulative IPC: 2.83983 (Simulation time: 0 hr 2 min 6 sec) 
Heartbeat CPU 0 instructions: 60000002 cycles: 21142298 heartbeat IPC: 2.82836 cumulative IPC: 2.83791 (Simulation time: 0 hr 2 min 31 sec) 
Heartbeat CPU 0 instructions: 70000003 cycles: 24674463 heartbeat IPC: 2.83113 cumulative IPC: 2.83694 (Simulation time: 0 hr 2 min 57 sec) 
Heartbeat CPU 0 instructions: 80000000 cycles: 28196449 heartbeat IPC: 2.83931 cumulative IPC: 2.83724 (Simulation time: 0 hr 3 min 23 sec) 
Heartbeat CPU 0 instructions: 90000002 cycles: 31724077 heartbeat IPC: 2.83477 cumulative IPC: 2.83696 (Simulation time: 0 hr 3 min 48 sec) 
Heartbeat CPU 0 instructions: 100000000 cycles: 35244231 heartbeat IPC: 2.84078 cumulative IPC: 2.83734 (Simulation time: 0 hr 4 min 14 sec) 

Warmup complete CPU 0 instructions: 100000004 cycles: 35244232 (Simulation time: 0 hr 4 min 14 sec) 

Heartbeat CPU 0 instructions: 110000000 cycles: 60644327 heartbeat IPC: 0.393699 cumulative IPC: 0.393699 (Simulation time: 0 hr 4 min 57 sec) 
Heartbeat CPU 0 instructions: 120000001 cycles: 86377514 heartbeat IPC: 0.388603 cumulative IPC: 0.391135 (Simulation time: 0 hr 5 min 41 sec) 
Heartbeat CPU 0 instructions: 130000001 cycles: 111373100 heartbeat IPC: 0.400071 cumulative IPC: 0.394069 (Simulation time: 0 hr 6 min 24 sec) 
Heartbeat CPU 0 instructions: 140000002 cycles: 136902482 heartbeat IPC: 0.391706 cumulative IPC: 0.393475 (Simulation time: 0 hr 7 min 7 sec) 
Heartbeat CPU 0 instructions: 150000000 cycles: 162569729 heartbeat IPC: 0.389601 cumulative IPC: 0.392694 (Simulation time: 0 hr 7 min 51 sec) 
Heartbeat CPU 0 instructions: 160000001 cycles: 188439869 heartbeat IPC: 0.386546 cumulative IPC: 0.391656 (Simulation time: 0 hr 8 min 35 sec) 
Heartbeat CPU 0 instructions: 170000002 cycles: 214153902 heartbeat IPC: 0.388893 cumulative IPC: 0.391259 (Simulation time: 0 hr 9 min 19 sec) 
Heartbeat CPU 0 instructions: 180000000 cycles: 239687421 heartbeat IPC: 0.391642 cumulative IPC: 0.391307 (Simulation time: 0 hr 10 min 2 sec) 
Heartbeat CPU 0 instructions: 190000002 cycles: 265569861 heartbeat IPC: 0.386362 cumulative IPC: 0.390751 (Simulation time: 0 hr 10 min 46 sec) 
Heartbeat CPU 0 instructions: 200000002 cycles: 291126112 heartbeat IPC: 0.391294 cumulative IPC: 0.390805 (Simulation time: 0 hr 11 min 30 sec) 
Heartbeat CPU 0 instructions: 210000001 cycles: 317309044 heartbeat IPC: 0.381928 cumulative IPC: 0.389981 (Simulation time: 0 hr 12 min 14 sec) 
Heartbeat CPU 0 instructions: 220000000 cycles: 343416964 heartbeat IPC: 0.383025 cumulative IPC: 0.389392 (Simulation time: 0 hr 12 min 58 sec) 
Heartbeat CPU 0 instructions: 230000000 cycles: 369234689 heartbeat IPC: 0.387331 cumulative IPC: 0.389233 (Simulation time: 0 hr 13 min 42 sec) 
Heartbeat CPU 0 instructions: 240000001 cycles: 395024507 heartbeat IPC: 0.38775 cumulative IPC: 0.389126 (Simulation time: 0 hr 14 min 26 sec) 
Heartbeat CPU 0 instructions: 250000000 cycles: 420352290 heartbeat IPC: 0.394823 cumulative IPC: 0.389501 (Simulation time: 0 hr 15 min 9 sec) 
Heartbeat CPU 0 instructions: 260000002 cycles: 445678143 heartbeat IPC: 0.394854 cumulative IPC: 0.389831 (Simulation time: 0 hr 15 min 53 sec) 
Heartbeat CPU 0 instructions: 270000001 cycles: 470632846 heartbeat IPC: 0.400726 cumulative IPC: 0.390456 (Simulation time: 0 hr 16 min 36 sec) 
Heartbeat CPU 0 instructions: 280000002 cycles: 495697130 heartbeat IPC: 0.398974 cumulative IPC: 0.390919 (Simulation time: 0 hr 17 min 19 sec) 
Heartbeat CPU 0 instructions: 290000000 cycles: 521109784 heartbeat IPC: 0.393505 cumulative IPC: 0.391055 (Simulation time: 0 hr 18 min 3 sec) 
Heartbeat CPU 0 instructions: 300000000 cycles: 546856704 heartbeat IPC: 0.388396 cumulative IPC: 0.390921 (Simulation time: 0 hr 18 min 47 sec) 
Heartbeat CPU 0 instructions: 310000001 cycles: 572633273 heartbeat IPC: 0.387949 cumulative IPC: 0.390778 (Simulation time: 0 hr 19 min 30 sec) 
Heartbeat CPU 0 instructions: 320000001 cycles: 597949072 heartbeat IPC: 0.39501 cumulative IPC: 0.390969 (Simulation time: 0 hr 20 min 14 sec) 
Heartbeat CPU 0 instructions: 330000000 cycles: 623167129 heartbeat IPC: 0.396541 cumulative IPC: 0.391208 (Simulation time: 0 hr 20 min 57 sec) 
Heartbeat CPU 0 instructions: 340000002 cycles: 648069997 heartbeat IPC: 0.40156 cumulative IPC: 0.391628 (Simulation time: 0 hr 21 min 40 sec) 
Heartbeat CPU 0 instructions: 350000001 cycles: 672752484 heartbeat IPC: 0.405146 cumulative IPC: 0.392152 (Simulation time: 0 hr 22 min 22 sec) 
Heartbeat CPU 0 instructions: 360000001 cycles: 697906507 heartbeat IPC: 0.397551 cumulative IPC: 0.392357 (Simulation time: 0 hr 23 min 5 sec) 
Heartbeat CPU 0 instructions: 370000002 cycles: 722688523 heartbeat IPC: 0.403518 cumulative IPC: 0.392759 (Simulation time: 0 hr 23 min 48 sec) 
Heartbeat CPU 0 instructions: 380000002 cycles: 747574210 heartbeat IPC: 0.401837 cumulative IPC: 0.393076 (Simulation time: 0 hr 24 min 31 sec) 
Heartbeat CPU 0 instructions: 390000003 cycles: 772553621 heartbeat IPC: 0.40033 cumulative IPC: 0.393322 (Simulation time: 0 hr 25 min 14 sec) 
Heartbeat CPU 0 instructions: 400000001 cycles: 797115640 heartbeat IPC: 0.407133 cumulative IPC: 0.393767 (Simulation time: 0 hr 25 min 56 sec) 
Heartbeat CPU 0 instructions: 410000002 cycles: 822149020 heartbeat IPC: 0.399467 cumulative IPC: 0.393949 (Simulation time: 0 hr 26 min 39 sec) 
Heartbeat CPU 0 instructions: 420000002 cycles: 847177407 heartbeat IPC: 0.399546 cumulative IPC: 0.394121 (Simulation time: 0 hr 27 min 23 sec) 
Heartbeat CPU 0 instructions: 430000000 cycles: 872953112 heartbeat IPC: 0.387962 cumulative IPC: 0.393932 (Simulation time: 0 hr 28 min 7 sec) 
Heartbeat CPU 0 instructions: 440000000 cycles: 898395096 heartbeat IPC: 0.393051 cumulative IPC: 0.393906 (Simulation time: 0 hr 28 min 52 sec) 
Heartbeat CPU 0 instructions: 450000000 cycles: 923369026 heartbeat IPC: 0.400418 cumulative IPC: 0.394089 (Simulation time: 0 hr 29 min 36 sec) 
Heartbeat CPU 0 instructions: 460000002 cycles: 947228355 heartbeat IPC: 0.419123 cumulative IPC: 0.394744 (Simulation time: 0 hr 30 min 19 sec) 
Heartbeat CPU 0 instructions: 470000000 cycles: 971225963 heartbeat IPC: 0.416708 cumulative IPC: 0.395307 (Simulation time: 0 hr 31 min 2 sec) 
Heartbeat CPU 0 instructions: 480000000 cycles: 994420008 heartbeat IPC: 0.431145 cumulative IPC: 0.396173 (Simulation time: 0 hr 31 min 44 sec) 
Heartbeat CPU 0 instructions: 490000001 cycles: 1016589519 heartbeat IPC: 0.45107 cumulative IPC: 0.397414 (Simulation time: 0 hr 32 min 25 sec) 
Heartbeat CPU 0 instructions: 500000001 cycles: 1037741323 heartbeat IPC: 0.472773 cumulative IPC: 0.399004 (Simulation time: 0 hr 33 min 5 sec) 
Heartbeat CPU 0 instructions: 510000000 cycles: 1058130281 heartbeat IPC: 0.490461 cumulative IPC: 0.400827 (Simulation time: 0 hr 33 min 45 sec) 
Heartbeat CPU 0 instructions: 520000001 cycles: 1077672975 heartbeat IPC: 0.5117 cumulative IPC: 0.402905 (Simulation time: 0 hr 34 min 23 sec) 
Heartbeat CPU 0 instructions: 530000001 cycles: 1096182326 heartbeat IPC: 0.540267 cumulative IPC: 0.405302 (Simulation time: 0 hr 35 min 1 sec) 
Heartbeat CPU 0 instructions: 540000001 cycles: 1114313622 heartbeat IPC: 0.551533 cumulative IPC: 0.407759 (Simulation time: 0 hr 35 min 38 sec) 
Heartbeat CPU 0 instructions: 550000000 cycles: 1131544710 heartbeat IPC: 0.580346 cumulative IPC: 0.410471 (Simulation time: 0 hr 36 min 14 sec) 
Heartbeat CPU 0 instructions: 560000002 cycles: 1148635588 heartbeat IPC: 0.585108 cumulative IPC: 0.413152 (Simulation time: 0 hr 36 min 50 sec) 
Heartbeat CPU 0 instructions: 570000001 cycles: 1164874421 heartbeat IPC: 0.615808 cumulative IPC: 0.416065 (Simulation time: 0 hr 37 min 25 sec) 
Heartbeat CPU 0 instructions: 580000000 cycles: 1181231740 heartbeat IPC: 0.611347 cumulative IPC: 0.418853 (Simulation time: 0 hr 38 min 0 sec) 
Heartbeat CPU 0 instructions: 590000000 cycles: 1196830562 heartbeat IPC: 0.641074 cumulative IPC: 0.421837 (Simulation time: 0 hr 38 min 34 sec) 
Heartbeat CPU 0 instructions: 600000002 cycles: 1212002908 heartbeat IPC: 0.659094 cumulative IPC: 0.424896 (Simulation time: 0 hr 39 min 8 sec) 
Heartbeat CPU 0 instructions: 610000002 cycles: 1226870120 heartbeat IPC: 0.672621 cumulative IPC: 0.427987 (Simulation time: 0 hr 39 min 42 sec) 
Heartbeat CPU 0 instructions: 620000003 cycles: 1241764046 heartbeat IPC: 0.671415 cumulative IPC: 0.430992 (Simulation time: 0 hr 40 min 15 sec) 
Heartbeat CPU 0 instructions: 630000002 cycles: 1256424827 heartbeat IPC: 0.682092 cumulative IPC: 0.434006 (Simulation time: 0 hr 40 min 49 sec) 
Heartbeat CPU 0 instructions: 640000001 cycles: 1270736046 heartbeat IPC: 0.698752 cumulative IPC: 0.437073 (Simulation time: 0 hr 41 min 22 sec) 
Heartbeat CPU 0 instructions: 650000002 cycles: 1284978275 heartbeat IPC: 0.702137 cumulative IPC: 0.440094 (Simulation time: 0 hr 41 min 55 sec) 
Heartbeat CPU 0 instructions: 660000000 cycles: 1298948190 heartbeat IPC: 0.715824 cumulative IPC: 0.443142 (Simulation time: 0 hr 42 min 27 sec) 
Heartbeat CPU 0 instructions: 670000002 cycles: 1313038839 heartbeat IPC: 0.709691 cumulative IPC: 0.446081 (Simulation time: 0 hr 43 min 0 sec) 
Heartbeat CPU 0 instructions: 680000002 cycles: 1326861408 heartbeat IPC: 0.723455 cumulative IPC: 0.449049 (Simulation time: 0 hr 43 min 33 sec) 
Heartbeat CPU 0 instructions: 690000003 cycles: 1340878753 heartbeat IPC: 0.713402 cumulative IPC: 0.451888 (Simulation time: 0 hr 44 min 6 sec) 
Heartbeat CPU 0 instructions: 700000000 cycles: 1354893187 heartbeat IPC: 0.71355 cumulative IPC: 0.454666 (Simulation time: 0 hr 44 min 38 sec) 
Heartbeat CPU 0 instructions: 710000000 cycles: 1368714125 heartbeat IPC: 0.72354 cumulative IPC: 0.457453 (Simulation time: 0 hr 45 min 11 sec) 
Heartbeat CPU 0 instructions: 720000003 cycles: 1382367297 heartbeat IPC: 0.732431 cumulative IPC: 0.46024 (Simulation time: 0 hr 45 min 43 sec) 
Heartbeat CPU 0 instructions: 730000001 cycles: 1396000521 heartbeat IPC: 0.733502 cumulative IPC: 0.462978 (Simulation time: 0 hr 46 min 16 sec) 
Heartbeat CPU 0 instructions: 740000003 cycles: 1409664761 heartbeat IPC: 0.731837 cumulative IPC: 0.465651 (Simulation time: 0 hr 46 min 48 sec) 
Heartbeat CPU 0 instructions: 750000002 cycles: 1423371554 heartbeat IPC: 0.729565 cumulative IPC: 0.468257 (Simulation time: 0 hr 47 min 21 sec) 
Heartbeat CPU 0 instructions: 760000002 cycles: 1436872361 heartbeat IPC: 0.740696 cumulative IPC: 0.470881 (Simulation time: 0 hr 47 min 53 sec) 
Heartbeat CPU 0 instructions: 770000000 cycles: 1450525133 heartbeat IPC: 0.732452 cumulative IPC: 0.473404 (Simulation time: 0 hr 48 min 25 sec) 
Heartbeat CPU 0 instructions: 780000001 cycles: 1464046835 heartbeat IPC: 0.739552 cumulative IPC: 0.475923 (Simulation time: 0 hr 48 min 57 sec) 
Heartbeat CPU 0 instructions: 790000003 cycles: 1477751643 heartbeat IPC: 0.729671 cumulative IPC: 0.478334 (Simulation time: 0 hr 49 min 30 sec) 
Heartbeat CPU 0 instructions: 800000001 cycles: 1491149184 heartbeat IPC: 0.746405 cumulative IPC: 0.480801 (Simulation time: 0 hr 50 min 2 sec) 
Heartbeat CPU 0 instructions: 810000002 cycles: 1504758035 heartbeat IPC: 0.734816 cumulative IPC: 0.483153 (Simulation time: 0 hr 50 min 34 sec) 
Heartbeat CPU 0 instructions: 820000000 cycles: 1518532978 heartbeat IPC: 0.725956 cumulative IPC: 0.485408 (Simulation time: 0 hr 51 min 7 sec) 
Heartbeat CPU 0 instructions: 830000000 cycles: 1531878380 heartbeat IPC: 0.749322 cumulative IPC: 0.487761 (Simulation time: 0 hr 51 min 39 sec) 
Heartbeat CPU 0 instructions: 840000002 cycles: 1545551243 heartbeat IPC: 0.731376 cumulative IPC: 0.489967 (Simulation time: 0 hr 52 min 12 sec) 
Heartbeat CPU 0 instructions: 850000000 cycles: 1558969414 heartbeat IPC: 0.745258 cumulative IPC: 0.492215 (Simulation time: 0 hr 52 min 44 sec) 
Heartbeat CPU 0 instructions: 860000002 cycles: 1572646601 heartbeat IPC: 0.731145 cumulative IPC: 0.49434 (Simulation time: 0 hr 53 min 16 sec) 
Heartbeat CPU 0 instructions: 870000000 cycles: 1586131663 heartbeat IPC: 0.741561 cumulative IPC: 0.49649 (Simulation time: 0 hr 53 min 48 sec) 
Heartbeat CPU 0 instructions: 880000000 cycles: 1599768264 heartbeat IPC: 0.733321 cumulative IPC: 0.498554 (Simulation time: 0 hr 54 min 20 sec) 
Heartbeat CPU 0 instructions: 890000003 cycles: 1613246212 heartbeat IPC: 0.741953 cumulative IPC: 0.500633 (Simulation time: 0 hr 54 min 52 sec) 
Heartbeat CPU 0 instructions: 900000001 cycles: 1626852118 heartbeat IPC: 0.734975 cumulative IPC: 0.502636 (Simulation time: 0 hr 55 min 24 sec) 
Heartbeat CPU 0 instructions: 910000003 cycles: 1640405452 heartbeat IPC: 0.737826 cumulative IPC: 0.504622 (Simulation time: 0 hr 55 min 56 sec) 
Heartbeat CPU 0 instructions: 920000000 cycles: 1654044834 heartbeat IPC: 0.733171 cumulative IPC: 0.506548 (Simulation time: 0 hr 56 min 28 sec) 
Heartbeat CPU 0 instructions: 930000002 cycles: 1667521749 heartbeat IPC: 0.74201 cumulative IPC: 0.508492 (Simulation time: 0 hr 57 min 0 sec) 
Heartbeat CPU 0 instructions: 940000002 cycles: 1681977990 heartbeat IPC: 0.691743 cumulative IPC: 0.510101 (Simulation time: 0 hr 57 min 32 sec) 
Heartbeat CPU 0 instructions: 950000001 cycles: 1715707777 heartbeat IPC: 0.296474 cumulative IPC: 0.505813 (Simulation time: 0 hr 58 min 26 sec) 
Heartbeat CPU 0 instructions: 960000001 cycles: 1741706225 heartbeat IPC: 0.384638 cumulative IPC: 0.503967 (Simulation time: 0 hr 59 min 11 sec) 
Heartbeat CPU 0 instructions: 970000002 cycles: 1755969841 heartbeat IPC: 0.701085 cumulative IPC: 0.505601 (Simulation time: 0 hr 59 min 44 sec) 
Heartbeat CPU 0 instructions: 980000000 cycles: 1769528003 heartbeat IPC: 0.737563 cumulative IPC: 0.507414 (Simulation time: 1 hr 0 min 15 sec) 
Heartbeat CPU 0 instructions: 990000000 cycles: 1783217270 heartbeat IPC: 0.730499 cumulative IPC: 0.509161 (Simulation time: 1 hr 0 min 47 sec) 
Heartbeat CPU 0 instructions: 1000000003 cycles: 1796698275 heartbeat IPC: 0.741785 cumulative IPC: 0.510942 (Simulation time: 1 hr 1 min 19 sec) 
Heartbeat CPU 0 instructions: 1010000002 cycles: 1810439664 heartbeat IPC: 0.727728 cumulative IPC: 0.51262 (Simulation time: 1 hr 1 min 51 sec) 
Heartbeat CPU 0 instructions: 1020000003 cycles: 1823913377 heartbeat IPC: 0.742186 cumulative IPC: 0.514349 (Simulation time: 1 hr 2 min 23 sec) 
Heartbeat CPU 0 instructions: 1030000001 cycles: 1837606841 heartbeat IPC: 0.730275 cumulative IPC: 0.515989 (Simulation time: 1 hr 2 min 55 sec) 
Heartbeat CPU 0 instructions: 1040000003 cycles: 1851061188 heartbeat IPC: 0.743254 cumulative IPC: 0.517673 (Simulation time: 1 hr 3 min 27 sec) 
Heartbeat CPU 0 instructions: 1050000000 cycles: 1864763049 heartbeat IPC: 0.729828 cumulative IPC: 0.519262 (Simulation time: 1 hr 3 min 59 sec) 
Heartbeat CPU 0 instructions: 1060000001 cycles: 1878240721 heartbeat IPC: 0.741968 cumulative IPC: 0.520891 (Simulation time: 1 hr 4 min 31 sec) 
Heartbeat CPU 0 instructions: 1070000003 cycles: 1891751813 heartbeat IPC: 0.740133 cumulative IPC: 0.522486 (Simulation time: 1 hr 5 min 3 sec) 
Heartbeat CPU 0 instructions: 1080000000 cycles: 1905155837 heartbeat IPC: 0.746044 cumulative IPC: 0.524089 (Simulation time: 1 hr 5 min 35 sec) 
Heartbeat CPU 0 instructions: 1090000002 cycles: 1918796906 heartbeat IPC: 0.733081 cumulative IPC: 0.525603 (Simulation time: 1 hr 6 min 6 sec) 
Heartbeat CPU 0 instructions: 1100000000 cycles: 1932269092 heartbeat IPC: 0.74227 cumulative IPC: 0.527141 (Simulation time: 1 hr 6 min 38 sec) 
Finished CPU 0 instructions: 1000000000 cycles: 1897025109 cumulative IPC: 0.527141 (Simulation time: 1 hr 6 min 38 sec) 

ChampSim completed all CPUs

Region of Interest Statistics

CPU 0 cumulative IPC: 0.527141 instructions: 1000000000 cycles: 1897025109
L1D TOTAL     ACCESS:  250608109  HIT:  195379046  MISS:   55229063
L1D LOAD      ACCESS:   86098775  HIT:   77723687  MISS:    8375088
L1D RFO       ACCESS:  164509334  HIT:  117655359  MISS:   46853975
L1D PREFETCH  ACCESS:          0  HIT:          0  MISS:          0
L1D WRITEBACK ACCESS:          0  HIT:          0  MISS:          0
L1D PREFETCH  REQUESTED:          0  ISSUED:          0  USEFUL:          0  USELESS:          0
L1D AVERAGE MISS LATENCY: 315.482 cycles
L1I TOTAL     ACCESS:  154253087  HIT:  154253084  MISS:          3
L1I LOAD      ACCESS:  154253087  HIT:  154253084  MISS:          3
L1I RFO       ACCESS:          0  HIT:          0  MISS:          0
L1I PREFETCH  ACCESS:          0  HIT:          0  MISS:          0
L1I WRITEBACK ACCESS:          0  HIT:          0  MISS:          0
L1I PREFETCH  REQUESTED:          0  ISSUED:          0  USEFUL:          0  USELESS:          0
L1I AVERAGE MISS LATENCY: 373.667 cycles
L2C TOTAL     ACCESS:  102082847  HIT:   58995163  MISS:   43087684
L2C LOAD      ACCESS:    8375091  HIT:       5114  MISS:    8369977
L2C RFO       ACCESS:   46853778  HIT:   12144137  MISS:   34709641
L2C PREFETCH  ACCESS:          0  HIT:          0  MISS:          0
L2C WRITEBACK ACCESS:   46853978  HIT:   46845912  MISS:       8066
L2C PREFETCH  REQUESTED:          0  ISSUED:          0  USEFUL:          0  USELESS:          0
L2C AVERAGE MISS LATENCY: 386.861 cycles
LLC TOTAL     ACCESS:   77793145  HIT:   42526492  MISS:   35266653
LLC LOAD      ACCESS:    8369977  HIT:       5563  MISS:    8364414
LLC RFO       ACCESS:   34705844  HIT:    9611511  MISS:   25094333
LLC PREFETCH  ACCESS:          0  HIT:          0  MISS:          0
LLC WRITEBACK ACCESS:   34717324  HIT:   32909418  MISS:    1807906
LLC PREFETCH  REQUESTED:          0  ISSUED:          0  USEFUL:          0  USELESS:          0
LLC AVERAGE MISS LATENCY: 422.092 cycles
Major fault: 0 Minor fault: 304584

DRAM Statistics
 CHANNEL 0
 RQ ROW_BUFFER_HIT:    1689464  ROW_BUFFER_MISS:   31769283
 DBUS_CONGESTED:   33112633
 WQ ROW_BUFFER_HIT:    5623859  ROW_BUFFER_MISS:   19467605  FULL:       1223

 AVG_CONGESTED_CYCLE: 6

CPU 0 Branch Prediction Accuracy: 97.1481% MPKI: 0.40653 Average ROB Occupancy at Mispredict: 246.409

Branch types
NOT_BRANCH: 985745443 98.5745%
BRANCH_DIRECT_JUMP: 1582739 0.158274%
BRANCH_INDIRECT: 0 0%
BRANCH_CONDITIONAL: 12671818 1.26718%
BRANCH_DIRECT_CALL: 2 2e-07%
BRANCH_INDIRECT_CALL: 0 0%
BRANCH_RETURN: 2 2e-07%
BRANCH_OTHER: 0 0%

