
*** ChampSim Multicore Out-of-Order Simulator ***

Warmup Instructions: 100000000
Simulation Instructions: 1000000000
Number of CPUs: 1
LLC sets: 2048
LLC ways: 16
Off-chip DRAM Size: 4096 MB Channels: 1 Width: 64-bit Data Rate: 3200 MT/s

CPU 0 runs /scratch/user/kevin.weston/dpc3-traces/619.champsimtrace.xz
CPU 0 Bimodal branch predictor
Per-line RRPV Initialized
PRRIP State Initialized
Assign SAMPLER_SET[0]: 454  LLC: 2048
SAMPLER_SET[0]: 454
Assign SAMPLER_SET[1]: 1662  LLC: 2048
SAMPLER_SET[1]: 1662
Assign SAMPLER_SET[2]: 1921  LLC: 2048
SAMPLER_SET[2]: 1921
Assign SAMPLER_SET[3]: 1131  LLC: 2048
SAMPLER_SET[3]: 1131
Assign SAMPLER_SET[4]: 331  LLC: 2048
SAMPLER_SET[4]: 331
Assign SAMPLER_SET[5]: 1531  LLC: 2048
SAMPLER_SET[5]: 1531
Assign SAMPLER_SET[6]: 482  LLC: 2048
SAMPLER_SET[6]: 482
Assign SAMPLER_SET[7]: 1275  LLC: 2048
SAMPLER_SET[7]: 1275
Assign SAMPLER_SET[8]: 1876  LLC: 2048
SAMPLER_SET[8]: 1876
Assign SAMPLER_SET[9]: 2038  LLC: 2048
SAMPLER_SET[9]: 2038
Assign SAMPLER_SET[10]: 701  LLC: 2048
SAMPLER_SET[10]: 701
Assign SAMPLER_SET[11]: 479  LLC: 2048
SAMPLER_SET[11]: 479
Assign SAMPLER_SET[12]: 892  LLC: 2048
SAMPLER_SET[12]: 892
Assign SAMPLER_SET[13]: 1820  LLC: 2048
SAMPLER_SET[13]: 1820
Assign SAMPLER_SET[14]: 1505  LLC: 2048
SAMPLER_SET[14]: 1505
Assign SAMPLER_SET[15]: 1159  LLC: 2048
SAMPLER_SET[15]: 1159
Assign SAMPLER_SET[16]: 513  LLC: 2048
SAMPLER_SET[16]: 513
Assign SAMPLER_SET[17]: 703  LLC: 2048
SAMPLER_SET[17]: 703
Assign SAMPLER_SET[18]: 561  LLC: 2048
SAMPLER_SET[18]: 561
Assign SAMPLER_SET[19]: 990  LLC: 2048
SAMPLER_SET[19]: 990
Assign SAMPLER_SET[20]: 342  LLC: 2048
SAMPLER_SET[20]: 342
Assign SAMPLER_SET[21]: 882  LLC: 2048
SAMPLER_SET[21]: 882
Assign SAMPLER_SET[22]: 15  LLC: 2048
SAMPLER_SET[22]: 15
Assign SAMPLER_SET[23]: 71  LLC: 2048
SAMPLER_SET[23]: 71
Assign SAMPLER_SET[24]: 1127  LLC: 2048
SAMPLER_SET[24]: 1127
Assign SAMPLER_SET[25]: 1382  LLC: 2048
SAMPLER_SET[25]: 1382
Assign SAMPLER_SET[26]: 647  LLC: 2048
SAMPLER_SET[26]: 647
Assign SAMPLER_SET[27]: 857  LLC: 2048
SAMPLER_SET[27]: 857
Assign SAMPLER_SET[28]: 1450  LLC: 2048
SAMPLER_SET[28]: 1450
Assign SAMPLER_SET[29]: 1160  LLC: 2048
SAMPLER_SET[29]: 1160
Assign SAMPLER_SET[30]: 1852  LLC: 2048
SAMPLER_SET[30]: 1852
Assign SAMPLER_SET[31]: 1881  LLC: 2048
SAMPLER_SET[31]: 1881
Assign SAMPLER_SET[32]: 1770  LLC: 2048
SAMPLER_SET[32]: 1770
Assign SAMPLER_SET[33]: 1622  LLC: 2048
SAMPLER_SET[33]: 1622
Assign SAMPLER_SET[34]: 275  LLC: 2048
SAMPLER_SET[34]: 275
Assign SAMPLER_SET[35]: 635  LLC: 2048
SAMPLER_SET[35]: 635
Assign SAMPLER_SET[36]: 466  LLC: 2048
SAMPLER_SET[36]: 466
Assign SAMPLER_SET[37]: 1413  LLC: 2048
SAMPLER_SET[37]: 1413
Assign SAMPLER_SET[38]: 417  LLC: 2048
SAMPLER_SET[38]: 417
Assign SAMPLER_SET[39]: 472  LLC: 2048
SAMPLER_SET[39]: 472
Assign SAMPLER_SET[40]: 1340  LLC: 2048
SAMPLER_SET[40]: 1340
Assign SAMPLER_SET[41]: 852  LLC: 2048
SAMPLER_SET[41]: 852
Assign SAMPLER_SET[42]: 1365  LLC: 2048
SAMPLER_SET[42]: 1365
Assign SAMPLER_SET[43]: 47  LLC: 2048
SAMPLER_SET[43]: 47
Assign SAMPLER_SET[44]: 823  LLC: 2048
SAMPLER_SET[44]: 823
Assign SAMPLER_SET[45]: 686  LLC: 2048
SAMPLER_SET[45]: 686
Assign SAMPLER_SET[46]: 1637  LLC: 2048
SAMPLER_SET[46]: 1637
Assign SAMPLER_SET[47]: 1115  LLC: 2048
SAMPLER_SET[47]: 1115
Assign SAMPLER_SET[48]: 986  LLC: 2048
SAMPLER_SET[48]: 986
Assign SAMPLER_SET[49]: 258  LLC: 2048
SAMPLER_SET[49]: 258
Assign SAMPLER_SET[50]: 633  LLC: 2048
SAMPLER_SET[50]: 633
Assign SAMPLER_SET[51]: 920  LLC: 2048
SAMPLER_SET[51]: 920
Assign SAMPLER_SET[52]: 204  LLC: 2048
SAMPLER_SET[52]: 204
Assign SAMPLER_SET[53]: 227  LLC: 2048
SAMPLER_SET[53]: 227
Assign SAMPLER_SET[54]: 1818  LLC: 2048
SAMPLER_SET[54]: 1818
Assign SAMPLER_SET[55]: 886  LLC: 2048
SAMPLER_SET[55]: 886
Assign SAMPLER_SET[56]: 1422  LLC: 2048
SAMPLER_SET[56]: 1422
Assign SAMPLER_SET[57]: 607  LLC: 2048
SAMPLER_SET[57]: 607
Assign SAMPLER_SET[58]: 217  LLC: 2048
SAMPLER_SET[58]: 217
Assign SAMPLER_SET[59]: 1945  LLC: 2048
SAMPLER_SET[59]: 1945
Assign SAMPLER_SET[60]: 143  LLC: 2048
SAMPLER_SET[60]: 143
Assign SAMPLER_SET[61]: 1311  LLC: 2048
SAMPLER_SET[61]: 1311
Assign SAMPLER_SET[62]: 319  LLC: 2048
SAMPLER_SET[62]: 319
Assign SAMPLER_SET[63]: 1846  LLC: 2048
SAMPLER_SET[63]: 1846
Assign SAMPLER_SET[64]: 238  LLC: 2048
SAMPLER_SET[64]: 238
Assign SAMPLER_SET[65]: 67  LLC: 2048
SAMPLER_SET[65]: 67
Assign SAMPLER_SET[66]: 1912  LLC: 2048
SAMPLER_SET[66]: 1912
Assign SAMPLER_SET[67]: 1613  LLC: 2048
SAMPLER_SET[67]: 1613
Assign SAMPLER_SET[68]: 1293  LLC: 2048
SAMPLER_SET[68]: 1293
Assign SAMPLER_SET[69]: 1018  LLC: 2048
SAMPLER_SET[69]: 1018
Assign SAMPLER_SET[70]: 1982  LLC: 2048
SAMPLER_SET[70]: 1982
Assign SAMPLER_SET[71]: 1702  LLC: 2048
SAMPLER_SET[71]: 1702
Assign SAMPLER_SET[72]: 1498  LLC: 2048
SAMPLER_SET[72]: 1498
Assign SAMPLER_SET[73]: 228  LLC: 2048
SAMPLER_SET[73]: 228
Assign SAMPLER_SET[74]: 1414  LLC: 2048
SAMPLER_SET[74]: 1414
Assign SAMPLER_SET[75]: 1166  LLC: 2048
SAMPLER_SET[75]: 1166
Assign SAMPLER_SET[76]: 732  LLC: 2048
SAMPLER_SET[76]: 732
Assign SAMPLER_SET[77]: 297  LLC: 2048
SAMPLER_SET[77]: 297
Assign SAMPLER_SET[78]: 1133  LLC: 2048
SAMPLER_SET[78]: 1133
Assign SAMPLER_SET[79]: 846  LLC: 2048
SAMPLER_SET[79]: 846
Assign SAMPLER_SET[80]: 767  LLC: 2048
SAMPLER_SET[80]: 767
Assign SAMPLER_SET[81]: 1878  LLC: 2048
SAMPLER_SET[81]: 1878
Assign SAMPLER_SET[82]: 993  LLC: 2048
SAMPLER_SET[82]: 993
Assign SAMPLER_SET[83]: 1392  LLC: 2048
SAMPLER_SET[83]: 1392
Assign SAMPLER_SET[84]: 1568  LLC: 2048
SAMPLER_SET[84]: 1568
Assign SAMPLER_SET[85]: 1787  LLC: 2048
SAMPLER_SET[85]: 1787
Assign SAMPLER_SET[86]: 399  LLC: 2048
SAMPLER_SET[86]: 399
Assign SAMPLER_SET[87]: 1201  LLC: 2048
SAMPLER_SET[87]: 1201
Assign SAMPLER_SET[88]: 856  LLC: 2048
SAMPLER_SET[88]: 856
Assign SAMPLER_SET[89]: 773  LLC: 2048
SAMPLER_SET[89]: 773
Assign SAMPLER_SET[90]: 1680  LLC: 2048
SAMPLER_SET[90]: 1680
Assign SAMPLER_SET[91]: 1477  LLC: 2048
SAMPLER_SET[91]: 1477
Assign SAMPLER_SET[92]: 9  LLC: 2048
SAMPLER_SET[92]: 9
Assign SAMPLER_SET[93]: 1500  LLC: 2048
SAMPLER_SET[93]: 1500
Assign SAMPLER_SET[94]: 851  LLC: 2048
SAMPLER_SET[94]: 851
Assign SAMPLER_SET[95]: 973  LLC: 2048
SAMPLER_SET[95]: 973
Assign SAMPLER_SET[96]: 938  LLC: 2048
SAMPLER_SET[96]: 938
Assign SAMPLER_SET[97]: 1851  LLC: 2048
SAMPLER_SET[97]: 1851
Assign SAMPLER_SET[98]: 1608  LLC: 2048
SAMPLER_SET[98]: 1608
Assign SAMPLER_SET[99]: 1945  LLC: 2048
Assign SAMPLER_SET[99]: 1106  LLC: 2048
SAMPLER_SET[99]: 1106
Assign SAMPLER_SET[100]: 979  LLC: 2048
SAMPLER_SET[100]: 979
Assign SAMPLER_SET[101]: 338  LLC: 2048
SAMPLER_SET[101]: 338
Assign SAMPLER_SET[102]: 1693  LLC: 2048
SAMPLER_SET[102]: 1693
Assign SAMPLER_SET[103]: 6  LLC: 2048
SAMPLER_SET[103]: 6
Assign SAMPLER_SET[104]: 671  LLC: 2048
SAMPLER_SET[104]: 671
Assign SAMPLER_SET[105]: 490  LLC: 2048
SAMPLER_SET[105]: 490
Assign SAMPLER_SET[106]: 1461  LLC: 2048
SAMPLER_SET[106]: 1461
Assign SAMPLER_SET[107]: 1730  LLC: 2048
SAMPLER_SET[107]: 1730
Assign SAMPLER_SET[108]: 1030  LLC: 2048
SAMPLER_SET[108]: 1030
Assign SAMPLER_SET[109]: 19  LLC: 2048
SAMPLER_SET[109]: 19
Assign SAMPLER_SET[110]: 920  LLC: 2048
Assign SAMPLER_SET[110]: 329  LLC: 2048
SAMPLER_SET[110]: 329
Assign SAMPLER_SET[111]: 1714  LLC: 2048
SAMPLER_SET[111]: 1714
Assign SAMPLER_SET[112]: 1  LLC: 2048
SAMPLER_SET[112]: 1
Assign SAMPLER_SET[113]: 1822  LLC: 2048
SAMPLER_SET[113]: 1822
Assign SAMPLER_SET[114]: 172  LLC: 2048
SAMPLER_SET[114]: 172
Assign SAMPLER_SET[115]: 1586  LLC: 2048
SAMPLER_SET[115]: 1586
Assign SAMPLER_SET[116]: 648  LLC: 2048
SAMPLER_SET[116]: 648
Assign SAMPLER_SET[117]: 1329  LLC: 2048
SAMPLER_SET[117]: 1329
Assign SAMPLER_SET[118]: 668  LLC: 2048
SAMPLER_SET[118]: 668
Assign SAMPLER_SET[119]: 1874  LLC: 2048
SAMPLER_SET[119]: 1874
Assign SAMPLER_SET[120]: 70  LLC: 2048
SAMPLER_SET[120]: 70
Assign SAMPLER_SET[121]: 661  LLC: 2048
SAMPLER_SET[121]: 661
Assign SAMPLER_SET[122]: 1649  LLC: 2048
SAMPLER_SET[122]: 1649
Assign SAMPLER_SET[123]: 1590  LLC: 2048
SAMPLER_SET[123]: 1590
Assign SAMPLER_SET[124]: 911  LLC: 2048
SAMPLER_SET[124]: 911
Assign SAMPLER_SET[125]: 1367  LLC: 2048
SAMPLER_SET[125]: 1367
Assign SAMPLER_SET[126]: 1782  LLC: 2048
SAMPLER_SET[126]: 1782
Assign SAMPLER_SET[127]: 569  LLC: 2048
SAMPLER_SET[127]: 569
Assign SAMPLER_SET[128]: 1309  LLC: 2048
SAMPLER_SET[128]: 1309
Assign SAMPLER_SET[129]: 534  LLC: 2048
SAMPLER_SET[129]: 534
Assign SAMPLER_SET[130]: 1274  LLC: 2048
SAMPLER_SET[130]: 1274
Assign SAMPLER_SET[131]: 904  LLC: 2048
SAMPLER_SET[131]: 904
Assign SAMPLER_SET[132]: 1908  LLC: 2048
SAMPLER_SET[132]: 1908
Assign SAMPLER_SET[133]: 245  LLC: 2048
SAMPLER_SET[133]: 245
Assign SAMPLER_SET[134]: 1688  LLC: 2048
SAMPLER_SET[134]: 1688
Assign SAMPLER_SET[135]: 1660  LLC: 2048
SAMPLER_SET[135]: 1660
Assign SAMPLER_SET[136]: 1303  LLC: 2048
SAMPLER_SET[136]: 1303
Assign SAMPLER_SET[137]: 1628  LLC: 2048
SAMPLER_SET[137]: 1628
Assign SAMPLER_SET[138]: 1857  LLC: 2048
SAMPLER_SET[138]: 1857
Assign SAMPLER_SET[139]: 187  LLC: 2048
SAMPLER_SET[139]: 187
Assign SAMPLER_SET[140]: 1389  LLC: 2048
SAMPLER_SET[140]: 1389
Assign SAMPLER_SET[141]: 881  LLC: 2048
SAMPLER_SET[141]: 881
Assign SAMPLER_SET[142]: 1166  LLC: 2048
Assign SAMPLER_SET[142]: 1039  LLC: 2048
SAMPLER_SET[142]: 1039
Assign SAMPLER_SET[143]: 1136  LLC: 2048
SAMPLER_SET[143]: 1136
Assign SAMPLER_SET[144]: 601  LLC: 2048
SAMPLER_SET[144]: 601
Assign SAMPLER_SET[145]: 967  LLC: 2048
SAMPLER_SET[145]: 967
Assign SAMPLER_SET[146]: 769  LLC: 2048
SAMPLER_SET[146]: 769
Assign SAMPLER_SET[147]: 283  LLC: 2048
SAMPLER_SET[147]: 283
Assign SAMPLER_SET[148]: 559  LLC: 2048
SAMPLER_SET[148]: 559
Assign SAMPLER_SET[149]: 1075  LLC: 2048
SAMPLER_SET[149]: 1075
Assign SAMPLER_SET[150]: 829  LLC: 2048
SAMPLER_SET[150]: 829
Assign SAMPLER_SET[151]: 1681  LLC: 2048
SAMPLER_SET[151]: 1681
Assign SAMPLER_SET[152]: 1728  LLC: 2048
SAMPLER_SET[152]: 1728
Assign SAMPLER_SET[153]: 541  LLC: 2048
SAMPLER_SET[153]: 541
Assign SAMPLER_SET[154]: 421  LLC: 2048
SAMPLER_SET[154]: 421
Assign SAMPLER_SET[155]: 1037  LLC: 2048
SAMPLER_SET[155]: 1037
Assign SAMPLER_SET[156]: 13  LLC: 2048
SAMPLER_SET[156]: 13
Assign SAMPLER_SET[157]: 1707  LLC: 2048
SAMPLER_SET[157]: 1707
Assign SAMPLER_SET[158]: 1075  LLC: 2048
Assign SAMPLER_SET[158]: 1933  LLC: 2048
SAMPLER_SET[158]: 1933
Assign SAMPLER_SET[159]: 1406  LLC: 2048
SAMPLER_SET[159]: 1406
Assign SAMPLER_SET[160]: 94  LLC: 2048
SAMPLER_SET[160]: 94
Assign SAMPLER_SET[161]: 1423  LLC: 2048
SAMPLER_SET[161]: 1423
Assign SAMPLER_SET[162]: 1854  LLC: 2048
SAMPLER_SET[162]: 1854
Assign SAMPLER_SET[163]: 230  LLC: 2048
SAMPLER_SET[163]: 230
Assign SAMPLER_SET[164]: 104  LLC: 2048
SAMPLER_SET[164]: 104
Assign SAMPLER_SET[165]: 1652  LLC: 2048
SAMPLER_SET[165]: 1652
Assign SAMPLER_SET[166]: 1446  LLC: 2048
SAMPLER_SET[166]: 1446
Assign SAMPLER_SET[167]: 1338  LLC: 2048
SAMPLER_SET[167]: 1338
Assign SAMPLER_SET[168]: 177  LLC: 2048
SAMPLER_SET[168]: 177
Assign SAMPLER_SET[169]: 195  LLC: 2048
SAMPLER_SET[169]: 195
Assign SAMPLER_SET[170]: 1171  LLC: 2048
SAMPLER_SET[170]: 1171
Assign SAMPLER_SET[171]: 1297  LLC: 2048
SAMPLER_SET[171]: 1297
Assign SAMPLER_SET[172]: 1704  LLC: 2048
SAMPLER_SET[172]: 1704
Assign SAMPLER_SET[173]: 100  LLC: 2048
SAMPLER_SET[173]: 100
Assign SAMPLER_SET[174]: 711  LLC: 2048
SAMPLER_SET[174]: 711
Assign SAMPLER_SET[175]: 1243  LLC: 2048
SAMPLER_SET[175]: 1243
Assign SAMPLER_SET[176]: 1738  LLC: 2048
SAMPLER_SET[176]: 1738
Assign SAMPLER_SET[177]: 1504  LLC: 2048
SAMPLER_SET[177]: 1504
Assign SAMPLER_SET[178]: 96  LLC: 2048
SAMPLER_SET[178]: 96
Assign SAMPLER_SET[179]: 1249  LLC: 2048
SAMPLER_SET[179]: 1249
Assign SAMPLER_SET[180]: 1267  LLC: 2048
SAMPLER_SET[180]: 1267
Assign SAMPLER_SET[181]: 1727  LLC: 2048
SAMPLER_SET[181]: 1727
Assign SAMPLER_SET[182]: 1545  LLC: 2048
SAMPLER_SET[182]: 1545
Assign SAMPLER_SET[183]: 1792  LLC: 2048
SAMPLER_SET[183]: 1792
Assign SAMPLER_SET[184]: 1383  LLC: 2048
SAMPLER_SET[184]: 1383
Assign SAMPLER_SET[185]: 1954  LLC: 2048
SAMPLER_SET[185]: 1954
Assign SAMPLER_SET[186]: 739  LLC: 2048
SAMPLER_SET[186]: 739
Assign SAMPLER_SET[187]: 1061  LLC: 2048
SAMPLER_SET[187]: 1061
Assign SAMPLER_SET[188]: 672  LLC: 2048
SAMPLER_SET[188]: 672
Assign SAMPLER_SET[189]: 1057  LLC: 2048
SAMPLER_SET[189]: 1057
Assign SAMPLER_SET[190]: 1329  LLC: 2048
Assign SAMPLER_SET[190]: 1415  LLC: 2048
SAMPLER_SET[190]: 1415
Assign SAMPLER_SET[191]: 981  LLC: 2048
SAMPLER_SET[191]: 981
Assign SAMPLER_SET[192]: 98  LLC: 2048
SAMPLER_SET[192]: 98
Assign SAMPLER_SET[193]: 453  LLC: 2048
SAMPLER_SET[193]: 453
Assign SAMPLER_SET[194]: 1448  LLC: 2048
SAMPLER_SET[194]: 1448
Assign SAMPLER_SET[195]: 79  LLC: 2048
SAMPLER_SET[195]: 79
Assign SAMPLER_SET[196]: 126  LLC: 2048
SAMPLER_SET[196]: 126
Assign SAMPLER_SET[197]: 1582  LLC: 2048
SAMPLER_SET[197]: 1582
Assign SAMPLER_SET[198]: 1289  LLC: 2048
SAMPLER_SET[198]: 1289
Assign SAMPLER_SET[199]: 875  LLC: 2048
SAMPLER_SET[199]: 875
Assign SAMPLER_SET[200]: 404  LLC: 2048
SAMPLER_SET[200]: 404
Assign SAMPLER_SET[201]: 415  LLC: 2048
SAMPLER_SET[201]: 415
Assign SAMPLER_SET[202]: 1712  LLC: 2048
SAMPLER_SET[202]: 1712
Assign SAMPLER_SET[203]: 1389  LLC: 2048
Assign SAMPLER_SET[203]: 169  LLC: 2048
SAMPLER_SET[203]: 169
Assign SAMPLER_SET[204]: 158  LLC: 2048
SAMPLER_SET[204]: 158
Assign SAMPLER_SET[205]: 90  LLC: 2048
SAMPLER_SET[205]: 90
Assign SAMPLER_SET[206]: 1291  LLC: 2048
SAMPLER_SET[206]: 1291
Assign SAMPLER_SET[207]: 838  LLC: 2048
SAMPLER_SET[207]: 838
Assign SAMPLER_SET[208]: 1904  LLC: 2048
SAMPLER_SET[208]: 1904
Assign SAMPLER_SET[209]: 640  LLC: 2048
SAMPLER_SET[209]: 640
Assign SAMPLER_SET[210]: 1462  LLC: 2048
SAMPLER_SET[210]: 1462
Assign SAMPLER_SET[211]: 1487  LLC: 2048
SAMPLER_SET[211]: 1487
Assign SAMPLER_SET[212]: 1863  LLC: 2048
SAMPLER_SET[212]: 1863
Assign SAMPLER_SET[213]: 1036  LLC: 2048
SAMPLER_SET[213]: 1036
Assign SAMPLER_SET[214]: 1702  LLC: 2048
Assign SAMPLER_SET[214]: 933  LLC: 2048
SAMPLER_SET[214]: 933
Assign SAMPLER_SET[215]: 554  LLC: 2048
SAMPLER_SET[215]: 554
Assign SAMPLER_SET[216]: 1496  LLC: 2048
SAMPLER_SET[216]: 1496
Assign SAMPLER_SET[217]: 1708  LLC: 2048
SAMPLER_SET[217]: 1708
Assign SAMPLER_SET[218]: 1275  LLC: 2048
Assign SAMPLER_SET[218]: 416  LLC: 2048
SAMPLER_SET[218]: 416
Assign SAMPLER_SET[219]: 491  LLC: 2048
SAMPLER_SET[219]: 491
Assign SAMPLER_SET[220]: 183  LLC: 2048
SAMPLER_SET[220]: 183
Assign SAMPLER_SET[221]: 1657  LLC: 2048
SAMPLER_SET[221]: 1657
Assign SAMPLER_SET[222]: 1060  LLC: 2048
SAMPLER_SET[222]: 1060
Assign SAMPLER_SET[223]: 626  LLC: 2048
SAMPLER_SET[223]: 626
Assign SAMPLER_SET[224]: 1315  LLC: 2048
SAMPLER_SET[224]: 1315
Assign SAMPLER_SET[225]: 1682  LLC: 2048
SAMPLER_SET[225]: 1682
Assign SAMPLER_SET[226]: 1352  LLC: 2048
SAMPLER_SET[226]: 1352
Assign SAMPLER_SET[227]: 1152  LLC: 2048
SAMPLER_SET[227]: 1152
Assign SAMPLER_SET[228]: 965  LLC: 2048
SAMPLER_SET[228]: 965
Assign SAMPLER_SET[229]: 1190  LLC: 2048
SAMPLER_SET[229]: 1190
Assign SAMPLER_SET[230]: 1191  LLC: 2048
SAMPLER_SET[230]: 1191
Assign SAMPLER_SET[231]: 645  LLC: 2048
SAMPLER_SET[231]: 645
Assign SAMPLER_SET[232]: 695  LLC: 2048
SAMPLER_SET[232]: 695
Assign SAMPLER_SET[233]: 1495  LLC: 2048
SAMPLER_SET[233]: 1495
Assign SAMPLER_SET[234]: 1932  LLC: 2048
SAMPLER_SET[234]: 1932
Assign SAMPLER_SET[235]: 656  LLC: 2048
SAMPLER_SET[235]: 656
Assign SAMPLER_SET[236]: 1508  LLC: 2048
SAMPLER_SET[236]: 1508
Assign SAMPLER_SET[237]: 939  LLC: 2048
SAMPLER_SET[237]: 939
Assign SAMPLER_SET[238]: 355  LLC: 2048
SAMPLER_SET[238]: 355
Assign SAMPLER_SET[239]: 1092  LLC: 2048
SAMPLER_SET[239]: 1092
Assign SAMPLER_SET[240]: 850  LLC: 2048
SAMPLER_SET[240]: 850
Assign SAMPLER_SET[241]: 102  LLC: 2048
SAMPLER_SET[241]: 102
Assign SAMPLER_SET[242]: 1763  LLC: 2048
SAMPLER_SET[242]: 1763
Assign SAMPLER_SET[243]: 668  LLC: 2048
Assign SAMPLER_SET[243]: 51  LLC: 2048
SAMPLER_SET[243]: 51
Assign SAMPLER_SET[244]: 1317  LLC: 2048
SAMPLER_SET[244]: 1317
Assign SAMPLER_SET[245]: 2041  LLC: 2048
SAMPLER_SET[245]: 2041
Assign SAMPLER_SET[246]: 1374  LLC: 2048
SAMPLER_SET[246]: 1374
Assign SAMPLER_SET[247]: 682  LLC: 2048
SAMPLER_SET[247]: 682
Assign SAMPLER_SET[248]: 1466  LLC: 2048
SAMPLER_SET[248]: 1466
Assign SAMPLER_SET[249]: 1139  LLC: 2048
SAMPLER_SET[249]: 1139
Assign SAMPLER_SET[250]: 1632  LLC: 2048
SAMPLER_SET[250]: 1632
Assign SAMPLER_SET[251]: 1117  LLC: 2048
SAMPLER_SET[251]: 1117
Assign SAMPLER_SET[252]: 1611  LLC: 2048
SAMPLER_SET[252]: 1611
Assign SAMPLER_SET[253]: 1905  LLC: 2048
SAMPLER_SET[253]: 1905
Assign SAMPLER_SET[254]: 1662  LLC: 2048
Assign SAMPLER_SET[254]: 446  LLC: 2048
SAMPLER_SET[254]: 446
Assign SAMPLER_SET[255]: 1705  LLC: 2048
SAMPLER_SET[255]: 1705
Heartbeat CPU 0 instructions: 10000002 cycles: 3522185 heartbeat IPC: 2.83915 cumulative IPC: 2.83915 (Simulation time: 0 hr 0 min 25 sec) 
Heartbeat CPU 0 instructions: 20000003 cycles: 7041474 heartbeat IPC: 2.84148 cumulative IPC: 2.84031 (Simulation time: 0 hr 0 min 50 sec) 
Heartbeat CPU 0 instructions: 30000001 cycles: 10554493 heartbeat IPC: 2.84655 cumulative IPC: 2.84239 (Simulation time: 0 hr 1 min 16 sec) 
Heartbeat CPU 0 instructions: 40000000 cycles: 14080234 heartbeat IPC: 2.83628 cumulative IPC: 2.84086 (Simulation time: 0 hr 1 min 42 sec) 
Heartbeat CPU 0 instructions: 50000002 cycles: 17606551 heartbeat IPC: 2.83582 cumulative IPC: 2.83985 (Simulation time: 0 hr 2 min 7 sec) 
Heartbeat CPU 0 instructions: 60000002 cycles: 21141897 heartbeat IPC: 2.82858 cumulative IPC: 2.83797 (Simulation time: 0 hr 2 min 33 sec) 
Heartbeat CPU 0 instructions: 70000003 cycles: 24674038 heartbeat IPC: 2.83114 cumulative IPC: 2.83699 (Simulation time: 0 hr 2 min 59 sec) 
Heartbeat CPU 0 instructions: 80000000 cycles: 28195958 heartbeat IPC: 2.83936 cumulative IPC: 2.83729 (Simulation time: 0 hr 3 min 25 sec) 
Heartbeat CPU 0 instructions: 90000002 cycles: 31723533 heartbeat IPC: 2.83481 cumulative IPC: 2.83701 (Simulation time: 0 hr 3 min 51 sec) 
Heartbeat CPU 0 instructions: 100000000 cycles: 35243622 heartbeat IPC: 2.84084 cumulative IPC: 2.83739 (Simulation time: 0 hr 4 min 17 sec) 

Warmup complete CPU 0 instructions: 100000004 cycles: 35243623 (Simulation time: 0 hr 4 min 17 sec) 

Heartbeat CPU 0 instructions: 110000000 cycles: 61766017 heartbeat IPC: 0.37704 cumulative IPC: 0.37704 (Simulation time: 0 hr 5 min 2 sec) 
Heartbeat CPU 0 instructions: 120000001 cycles: 88664992 heartbeat IPC: 0.371761 cumulative IPC: 0.374382 (Simulation time: 0 hr 5 min 47 sec) 
Heartbeat CPU 0 instructions: 130000001 cycles: 115788375 heartbeat IPC: 0.368686 cumulative IPC: 0.372464 (Simulation time: 0 hr 6 min 33 sec) 
Heartbeat CPU 0 instructions: 140000002 cycles: 142694722 heartbeat IPC: 0.37166 cumulative IPC: 0.372262 (Simulation time: 0 hr 7 min 18 sec) 
Heartbeat CPU 0 instructions: 150000000 cycles: 169869835 heartbeat IPC: 0.367984 cumulative IPC: 0.371399 (Simulation time: 0 hr 8 min 3 sec) 
Heartbeat CPU 0 instructions: 160000001 cycles: 197007196 heartbeat IPC: 0.368496 cumulative IPC: 0.370912 (Simulation time: 0 hr 8 min 49 sec) 
Heartbeat CPU 0 instructions: 170000002 cycles: 223847593 heartbeat IPC: 0.372573 cumulative IPC: 0.371148 (Simulation time: 0 hr 9 min 34 sec) 
Heartbeat CPU 0 instructions: 180000000 cycles: 250789052 heartbeat IPC: 0.371175 cumulative IPC: 0.371151 (Simulation time: 0 hr 10 min 19 sec) 
Heartbeat CPU 0 instructions: 190000002 cycles: 277795863 heartbeat IPC: 0.370277 cumulative IPC: 0.371054 (Simulation time: 0 hr 11 min 4 sec) 
Heartbeat CPU 0 instructions: 200000002 cycles: 304707421 heartbeat IPC: 0.371588 cumulative IPC: 0.371107 (Simulation time: 0 hr 11 min 49 sec) 
Heartbeat CPU 0 instructions: 210000001 cycles: 332400725 heartbeat IPC: 0.361098 cumulative IPC: 0.370175 (Simulation time: 0 hr 12 min 35 sec) 
Heartbeat CPU 0 instructions: 220000000 cycles: 359841729 heartbeat IPC: 0.364418 cumulative IPC: 0.369688 (Simulation time: 0 hr 13 min 21 sec) 
Heartbeat CPU 0 instructions: 230000000 cycles: 387341569 heartbeat IPC: 0.363638 cumulative IPC: 0.369215 (Simulation time: 0 hr 14 min 7 sec) 
Heartbeat CPU 0 instructions: 240000001 cycles: 414604318 heartbeat IPC: 0.366801 cumulative IPC: 0.369042 (Simulation time: 0 hr 14 min 52 sec) 
Heartbeat CPU 0 instructions: 250000000 cycles: 441402183 heartbeat IPC: 0.373164 cumulative IPC: 0.369314 (Simulation time: 0 hr 15 min 37 sec) 
Heartbeat CPU 0 instructions: 260000002 cycles: 468555444 heartbeat IPC: 0.36828 cumulative IPC: 0.369249 (Simulation time: 0 hr 16 min 23 sec) 
Heartbeat CPU 0 instructions: 270000001 cycles: 495211896 heartbeat IPC: 0.375144 cumulative IPC: 0.369591 (Simulation time: 0 hr 17 min 8 sec) 
Heartbeat CPU 0 instructions: 280000002 cycles: 521787582 heartbeat IPC: 0.376284 cumulative IPC: 0.369956 (Simulation time: 0 hr 17 min 53 sec) 
Heartbeat CPU 0 instructions: 290000000 cycles: 548700207 heartbeat IPC: 0.371573 cumulative IPC: 0.370041 (Simulation time: 0 hr 18 min 38 sec) 
Heartbeat CPU 0 instructions: 300000003 cycles: 575955600 heartbeat IPC: 0.3669 cumulative IPC: 0.369883 (Simulation time: 0 hr 19 min 23 sec) 
Heartbeat CPU 0 instructions: 310000001 cycles: 603531394 heartbeat IPC: 0.362637 cumulative IPC: 0.369531 (Simulation time: 0 hr 20 min 9 sec) 
Heartbeat CPU 0 instructions: 320000001 cycles: 630681567 heartbeat IPC: 0.368322 cumulative IPC: 0.369476 (Simulation time: 0 hr 20 min 54 sec) 
Heartbeat CPU 0 instructions: 330000000 cycles: 656685545 heartbeat IPC: 0.384557 cumulative IPC: 0.370107 (Simulation time: 0 hr 21 min 39 sec) 
Heartbeat CPU 0 instructions: 340000002 cycles: 682716520 heartbeat IPC: 0.384158 cumulative IPC: 0.370672 (Simulation time: 0 hr 22 min 23 sec) 
Heartbeat CPU 0 instructions: 350000001 cycles: 708760919 heartbeat IPC: 0.38396 cumulative IPC: 0.371186 (Simulation time: 0 hr 23 min 8 sec) 
Heartbeat CPU 0 instructions: 360000001 cycles: 735198884 heartbeat IPC: 0.378244 cumulative IPC: 0.371452 (Simulation time: 0 hr 23 min 52 sec) 
Heartbeat CPU 0 instructions: 370000002 cycles: 761064656 heartbeat IPC: 0.386611 cumulative IPC: 0.371993 (Simulation time: 0 hr 24 min 37 sec) 
Heartbeat CPU 0 instructions: 380000002 cycles: 787193974 heartbeat IPC: 0.382712 cumulative IPC: 0.372365 (Simulation time: 0 hr 25 min 21 sec) 
Heartbeat CPU 0 instructions: 390000003 cycles: 813603901 heartbeat IPC: 0.378646 cumulative IPC: 0.372578 (Simulation time: 0 hr 26 min 6 sec) 
Heartbeat CPU 0 instructions: 400000001 cycles: 839459531 heartbeat IPC: 0.386763 cumulative IPC: 0.373034 (Simulation time: 0 hr 26 min 50 sec) 
Heartbeat CPU 0 instructions: 410000002 cycles: 865793355 heartbeat IPC: 0.37974 cumulative IPC: 0.373247 (Simulation time: 0 hr 27 min 35 sec) 
Heartbeat CPU 0 instructions: 420000002 cycles: 892115248 heartbeat IPC: 0.379912 cumulative IPC: 0.373452 (Simulation time: 0 hr 28 min 19 sec) 
Heartbeat CPU 0 instructions: 430000000 cycles: 919048045 heartbeat IPC: 0.371294 cumulative IPC: 0.373386 (Simulation time: 0 hr 29 min 5 sec) 
Heartbeat CPU 0 instructions: 440000000 cycles: 945388130 heartbeat IPC: 0.379649 cumulative IPC: 0.373567 (Simulation time: 0 hr 29 min 49 sec) 
Heartbeat CPU 0 instructions: 450000000 cycles: 971577741 heartbeat IPC: 0.381831 cumulative IPC: 0.373798 (Simulation time: 0 hr 30 min 34 sec) 
Heartbeat CPU 0 instructions: 460000003 cycles: 996940067 heartbeat IPC: 0.394286 cumulative IPC: 0.374339 (Simulation time: 0 hr 31 min 18 sec) 
Heartbeat CPU 0 instructions: 470000000 cycles: 1022087195 heartbeat IPC: 0.39766 cumulative IPC: 0.374933 (Simulation time: 0 hr 32 min 2 sec) 
Heartbeat CPU 0 instructions: 480000003 cycles: 1046434382 heartbeat IPC: 0.410725 cumulative IPC: 0.375795 (Simulation time: 0 hr 32 min 44 sec) 
Heartbeat CPU 0 instructions: 490000001 cycles: 1069500965 heartbeat IPC: 0.433527 cumulative IPC: 0.377082 (Simulation time: 0 hr 33 min 26 sec) 
Heartbeat CPU 0 instructions: 500000001 cycles: 1092072607 heartbeat IPC: 0.443034 cumulative IPC: 0.378491 (Simulation time: 0 hr 34 min 7 sec) 
Heartbeat CPU 0 instructions: 510000000 cycles: 1114030668 heartbeat IPC: 0.455414 cumulative IPC: 0.380056 (Simulation time: 0 hr 34 min 47 sec) 
Heartbeat CPU 0 instructions: 520000001 cycles: 1134587884 heartbeat IPC: 0.486447 cumulative IPC: 0.382046 (Simulation time: 0 hr 35 min 26 sec) 
Heartbeat CPU 0 instructions: 530000001 cycles: 1154173748 heartbeat IPC: 0.510572 cumulative IPC: 0.384296 (Simulation time: 0 hr 36 min 4 sec) 
Heartbeat CPU 0 instructions: 540000001 cycles: 1173464570 heartbeat IPC: 0.518381 cumulative IPC: 0.386568 (Simulation time: 0 hr 36 min 42 sec) 
Heartbeat CPU 0 instructions: 550000000 cycles: 1191417189 heartbeat IPC: 0.557022 cumulative IPC: 0.389215 (Simulation time: 0 hr 37 min 18 sec) 
Heartbeat CPU 0 instructions: 560000003 cycles: 1209127606 heartbeat IPC: 0.56464 cumulative IPC: 0.391862 (Simulation time: 0 hr 37 min 54 sec) 
Heartbeat CPU 0 instructions: 570000001 cycles: 1226309850 heartbeat IPC: 0.581996 cumulative IPC: 0.394604 (Simulation time: 0 hr 38 min 30 sec) 
Heartbeat CPU 0 instructions: 580000000 cycles: 1243032231 heartbeat IPC: 0.598001 cumulative IPC: 0.397421 (Simulation time: 0 hr 39 min 5 sec) 
Heartbeat CPU 0 instructions: 590000000 cycles: 1259400174 heartbeat IPC: 0.61095 cumulative IPC: 0.400276 (Simulation time: 0 hr 39 min 40 sec) 
Heartbeat CPU 0 instructions: 600000002 cycles: 1275247365 heartbeat IPC: 0.631027 cumulative IPC: 0.403225 (Simulation time: 0 hr 40 min 14 sec) 
Heartbeat CPU 0 instructions: 610000002 cycles: 1291050981 heartbeat IPC: 0.632767 cumulative IPC: 0.406113 (Simulation time: 0 hr 40 min 48 sec) 
Heartbeat CPU 0 instructions: 620000003 cycles: 1306669619 heartbeat IPC: 0.640261 cumulative IPC: 0.40899 (Simulation time: 0 hr 41 min 22 sec) 
Heartbeat CPU 0 instructions: 630000000 cycles: 1322196797 heartbeat IPC: 0.644032 cumulative IPC: 0.411825 (Simulation time: 0 hr 41 min 56 sec) 
Heartbeat CPU 0 instructions: 640000001 cycles: 1337319680 heartbeat IPC: 0.66125 cumulative IPC: 0.414722 (Simulation time: 0 hr 42 min 30 sec) 
Heartbeat CPU 0 instructions: 650000002 cycles: 1352228595 heartbeat IPC: 0.67074 cumulative IPC: 0.417621 (Simulation time: 0 hr 43 min 3 sec) 
Heartbeat CPU 0 instructions: 660000000 cycles: 1366941334 heartbeat IPC: 0.679683 cumulative IPC: 0.420516 (Simulation time: 0 hr 43 min 36 sec) 
Heartbeat CPU 0 instructions: 670000002 cycles: 1381707569 heartbeat IPC: 0.677221 cumulative IPC: 0.423331 (Simulation time: 0 hr 44 min 9 sec) 
Heartbeat CPU 0 instructions: 680000002 cycles: 1396159940 heartbeat IPC: 0.691928 cumulative IPC: 0.426183 (Simulation time: 0 hr 44 min 42 sec) 
Heartbeat CPU 0 instructions: 690000003 cycles: 1410907393 heartbeat IPC: 0.678083 cumulative IPC: 0.428884 (Simulation time: 0 hr 45 min 15 sec) 
Heartbeat CPU 0 instructions: 700000000 cycles: 1425362622 heartbeat IPC: 0.691791 cumulative IPC: 0.431618 (Simulation time: 0 hr 45 min 48 sec) 
Heartbeat CPU 0 instructions: 710000003 cycles: 1439807007 heartbeat IPC: 0.692311 cumulative IPC: 0.434299 (Simulation time: 0 hr 46 min 20 sec) 
Heartbeat CPU 0 instructions: 720000003 cycles: 1454230650 heartbeat IPC: 0.693306 cumulative IPC: 0.436931 (Simulation time: 0 hr 46 min 53 sec) 
Heartbeat CPU 0 instructions: 730000001 cycles: 1468533510 heartbeat IPC: 0.699161 cumulative IPC: 0.439548 (Simulation time: 0 hr 47 min 26 sec) 
Heartbeat CPU 0 instructions: 740000003 cycles: 1482620023 heartbeat IPC: 0.709899 cumulative IPC: 0.442179 (Simulation time: 0 hr 47 min 58 sec) 
Heartbeat CPU 0 instructions: 750000002 cycles: 1496756833 heartbeat IPC: 0.707373 cumulative IPC: 0.444745 (Simulation time: 0 hr 48 min 31 sec) 
Heartbeat CPU 0 instructions: 760000002 cycles: 1510998482 heartbeat IPC: 0.702166 cumulative IPC: 0.447229 (Simulation time: 0 hr 49 min 3 sec) 
Heartbeat CPU 0 instructions: 770000000 cycles: 1525258907 heartbeat IPC: 0.701241 cumulative IPC: 0.44966 (Simulation time: 0 hr 49 min 36 sec) 
Heartbeat CPU 0 instructions: 780000001 cycles: 1539227261 heartbeat IPC: 0.715904 cumulative IPC: 0.452133 (Simulation time: 0 hr 50 min 8 sec) 
Heartbeat CPU 0 instructions: 790000003 cycles: 1554269602 heartbeat IPC: 0.66479 cumulative IPC: 0.454238 (Simulation time: 0 hr 50 min 41 sec) 
Heartbeat CPU 0 instructions: 800000001 cycles: 1568405807 heartbeat IPC: 0.707403 cumulative IPC: 0.456573 (Simulation time: 0 hr 51 min 14 sec) 
Heartbeat CPU 0 instructions: 810000002 cycles: 1582169456 heartbeat IPC: 0.726552 cumulative IPC: 0.458975 (Simulation time: 0 hr 51 min 46 sec) 
Heartbeat CPU 0 instructions: 820000000 cycles: 1596479711 heartbeat IPC: 0.698799 cumulative IPC: 0.461173 (Simulation time: 0 hr 52 min 19 sec) 
Heartbeat CPU 0 instructions: 830000000 cycles: 1610788743 heartbeat IPC: 0.698859 cumulative IPC: 0.463332 (Simulation time: 0 hr 52 min 51 sec) 
Heartbeat CPU 0 instructions: 840000002 cycles: 1625527295 heartbeat IPC: 0.678493 cumulative IPC: 0.465326 (Simulation time: 0 hr 53 min 24 sec) 
Heartbeat CPU 0 instructions: 850000000 cycles: 1639486188 heartbeat IPC: 0.716389 cumulative IPC: 0.46751 (Simulation time: 0 hr 53 min 56 sec) 
Heartbeat CPU 0 instructions: 860000002 cycles: 1654077769 heartbeat IPC: 0.685327 cumulative IPC: 0.469474 (Simulation time: 0 hr 54 min 29 sec) 
Heartbeat CPU 0 instructions: 870000000 cycles: 1668151744 heartbeat IPC: 0.710531 cumulative IPC: 0.471551 (Simulation time: 0 hr 55 min 1 sec) 
Heartbeat CPU 0 instructions: 880000000 cycles: 1682815234 heartbeat IPC: 0.681966 cumulative IPC: 0.473424 (Simulation time: 0 hr 55 min 34 sec) 
Heartbeat CPU 0 instructions: 890000003 cycles: 1697127080 heartbeat IPC: 0.698722 cumulative IPC: 0.475364 (Simulation time: 0 hr 56 min 6 sec) 
Heartbeat CPU 0 instructions: 900000001 cycles: 1711737447 heartbeat IPC: 0.684445 cumulative IPC: 0.477186 (Simulation time: 0 hr 56 min 39 sec) 
Heartbeat CPU 0 instructions: 910000003 cycles: 1726026314 heartbeat IPC: 0.699846 cumulative IPC: 0.479068 (Simulation time: 0 hr 57 min 12 sec) 
Heartbeat CPU 0 instructions: 920000000 cycles: 1740230211 heartbeat IPC: 0.704032 cumulative IPC: 0.480942 (Simulation time: 0 hr 57 min 44 sec) 
Heartbeat CPU 0 instructions: 930000002 cycles: 1754520833 heartbeat IPC: 0.69976 cumulative IPC: 0.482761 (Simulation time: 0 hr 58 min 17 sec) 
Heartbeat CPU 0 instructions: 940000002 cycles: 1769733474 heartbeat IPC: 0.657348 cumulative IPC: 0.484292 (Simulation time: 0 hr 58 min 51 sec) 
Heartbeat CPU 0 instructions: 950000001 cycles: 1805219292 heartbeat IPC: 0.281803 cumulative IPC: 0.480233 (Simulation time: 0 hr 59 min 47 sec) 
Heartbeat CPU 0 instructions: 960000001 cycles: 1832969363 heartbeat IPC: 0.360359 cumulative IPC: 0.478382 (Simulation time: 1 hr 0 min 34 sec) 
Heartbeat CPU 0 instructions: 970000002 cycles: 1848566828 heartbeat IPC: 0.64113 cumulative IPC: 0.479782 (Simulation time: 1 hr 1 min 8 sec) 
Heartbeat CPU 0 instructions: 980000000 cycles: 1863618230 heartbeat IPC: 0.66439 cumulative IPC: 0.481302 (Simulation time: 1 hr 1 min 41 sec) 
Heartbeat CPU 0 instructions: 990000000 cycles: 1878721278 heartbeat IPC: 0.662118 cumulative IPC: 0.482783 (Simulation time: 1 hr 2 min 15 sec) 
Heartbeat CPU 0 instructions: 1000000003 cycles: 1892738453 heartbeat IPC: 0.713411 cumulative IPC: 0.484524 (Simulation time: 1 hr 2 min 47 sec) 
Heartbeat CPU 0 instructions: 1010000002 cycles: 1906894063 heartbeat IPC: 0.706434 cumulative IPC: 0.486202 (Simulation time: 1 hr 3 min 20 sec) 
Heartbeat CPU 0 instructions: 1020000003 cycles: 1920678463 heartbeat IPC: 0.725458 cumulative IPC: 0.487951 (Simulation time: 1 hr 3 min 52 sec) 
Heartbeat CPU 0 instructions: 1030000001 cycles: 1935171718 heartbeat IPC: 0.689976 cumulative IPC: 0.489492 (Simulation time: 1 hr 4 min 25 sec) 
Heartbeat CPU 0 instructions: 1040000003 cycles: 1949037239 heartbeat IPC: 0.721214 cumulative IPC: 0.491171 (Simulation time: 1 hr 4 min 57 sec) 
Heartbeat CPU 0 instructions: 1050000000 cycles: 1963475101 heartbeat IPC: 0.692623 cumulative IPC: 0.492679 (Simulation time: 1 hr 5 min 30 sec) 
Heartbeat CPU 0 instructions: 1060000001 cycles: 1977467158 heartbeat IPC: 0.714691 cumulative IPC: 0.494279 (Simulation time: 1 hr 6 min 3 sec) 
Heartbeat CPU 0 instructions: 1070000003 cycles: 1992121177 heartbeat IPC: 0.682407 cumulative IPC: 0.495688 (Simulation time: 1 hr 6 min 36 sec) 
Heartbeat CPU 0 instructions: 1080000000 cycles: 2006239808 heartbeat IPC: 0.708284 cumulative IPC: 0.497211 (Simulation time: 1 hr 7 min 8 sec) 
Heartbeat CPU 0 instructions: 1090000002 cycles: 2020328937 heartbeat IPC: 0.709767 cumulative IPC: 0.498719 (Simulation time: 1 hr 7 min 41 sec) 
Heartbeat CPU 0 instructions: 1100000000 cycles: 2034504053 heartbeat IPC: 0.705461 cumulative IPC: 0.500185 (Simulation time: 1 hr 8 min 13 sec) 
Finished CPU 0 instructions: 1000000000 cycles: 1999260679 cumulative IPC: 0.500185 (Simulation time: 1 hr 8 min 13 sec) 

ChampSim completed all CPUs

Region of Interest Statistics

CPU 0 cumulative IPC: 0.500185 instructions: 1000000000 cycles: 1999260679
L1D TOTAL     ACCESS:  250380663  HIT:  195151697  MISS:   55228966
L1D LOAD      ACCESS:   85975662  HIT:   77600652  MISS:    8375010
L1D RFO       ACCESS:  164405001  HIT:  117551045  MISS:   46853956
L1D PREFETCH  ACCESS:          0  HIT:          0  MISS:          0
L1D WRITEBACK ACCESS:          0  HIT:          0  MISS:          0
L1D PREFETCH  REQUESTED:          0  ISSUED:          0  USEFUL:          0  USELESS:          0
L1D AVERAGE MISS LATENCY: 343.399 cycles
L1I TOTAL     ACCESS:  154331326  HIT:  154331323  MISS:          3
L1I LOAD      ACCESS:  154331326  HIT:  154331323  MISS:          3
L1I RFO       ACCESS:          0  HIT:          0  MISS:          0
L1I PREFETCH  ACCESS:          0  HIT:          0  MISS:          0
L1I WRITEBACK ACCESS:          0  HIT:          0  MISS:          0
L1I PREFETCH  REQUESTED:          0  ISSUED:          0  USEFUL:          0  USELESS:          0
L1I AVERAGE MISS LATENCY: 271 cycles
L2C TOTAL     ACCESS:  102082724  HIT:   58148525  MISS:   43934199
L2C LOAD      ACCESS:    8375013  HIT:       5447  MISS:    8369566
L2C RFO       ACCESS:   46853752  HIT:   11297359  MISS:   35556393
L2C PREFETCH  ACCESS:          0  HIT:          0  MISS:          0
L2C WRITEBACK ACCESS:   46853959  HIT:   46845719  MISS:       8240
L2C PREFETCH  REQUESTED:          0  ISSUED:          0  USEFUL:          0  USELESS:          0
L2C AVERAGE MISS LATENCY: 414.487 cycles
LLC TOTAL     ACCESS:   79484879  HIT:   27888705  MISS:   51596174
LLC LOAD      ACCESS:    8369566  HIT:       4597  MISS:    8364969
LLC RFO       ACCESS:   35552103  HIT:    8977495  MISS:   26574608
LLC PREFETCH  ACCESS:          0  HIT:          0  MISS:          0
LLC WRITEBACK ACCESS:   35563210  HIT:   18906613  MISS:   16656597
LLC PREFETCH  REQUESTED:          0  ISSUED:          0  USEFUL:          0  USELESS:          0
LLC AVERAGE MISS LATENCY: 317.689 cycles
Major fault: 0 Minor fault: 304584
==============================
Perceptron RRIP Stats:
   Num Updates:          8673988
   Num Primary Trains:   760711
   Num Secondary Trains: 674964
==============================
primary_perceptron #0: 1 -3 1 11 1 5 -3 -3 3 1 13 -5 1 7 -1 -25 
secondary_perceptron #0: -2 2 -4 6 2 8 0 -8 8 4 18 -2 4 6 0 -2 -4 -4 4 14 -40 


DRAM Statistics
 CHANNEL 0
 RQ ROW_BUFFER_HIT:    1855730  ROW_BUFFER_MISS:   33035792
 DBUS_CONGESTED:   33910769
 WQ ROW_BUFFER_HIT:    5903462  ROW_BUFFER_MISS:   20676406  FULL:      11604

 AVG_CONGESTED_CYCLE: 6

CPU 0 Branch Prediction Accuracy: 97.1481% MPKI: 0.40653 Average ROB Occupancy at Mispredict: 246.098

Branch types
NOT_BRANCH: 985745443 98.5745%
BRANCH_DIRECT_JUMP: 1582739 0.158274%
BRANCH_INDIRECT: 0 0%
BRANCH_CONDITIONAL: 12671818 1.26718%
BRANCH_DIRECT_CALL: 2 2e-07%
BRANCH_INDIRECT_CALL: 0 0%
BRANCH_RETURN: 2 2e-07%
BRANCH_OTHER: 0 0%

