
*** ChampSim Multicore Out-of-Order Simulator ***

Warmup Instructions: 100000000
Simulation Instructions: 1000000000
Number of CPUs: 1
LLC sets: 2048
LLC ways: 16
Off-chip DRAM Size: 4096 MB Channels: 1 Width: 64-bit Data Rate: 3200 MT/s

CPU 0 runs /scratch/user/kevin.weston/dpc3-traces/619.champsimtrace.xz
CPU 0 Bimodal branch predictor
Per-line RRPV Initialized
PRRIP State Initialized
Assign SAMPLER_SET[0]: 454  LLC: 2048
SAMPLER_SET[0]: 454
Assign SAMPLER_SET[1]: 1662  LLC: 2048
SAMPLER_SET[1]: 1662
Assign SAMPLER_SET[2]: 1921  LLC: 2048
SAMPLER_SET[2]: 1921
Assign SAMPLER_SET[3]: 1131  LLC: 2048
SAMPLER_SET[3]: 1131
Assign SAMPLER_SET[4]: 331  LLC: 2048
SAMPLER_SET[4]: 331
Assign SAMPLER_SET[5]: 1531  LLC: 2048
SAMPLER_SET[5]: 1531
Assign SAMPLER_SET[6]: 482  LLC: 2048
SAMPLER_SET[6]: 482
Assign SAMPLER_SET[7]: 1275  LLC: 2048
SAMPLER_SET[7]: 1275
Assign SAMPLER_SET[8]: 1876  LLC: 2048
SAMPLER_SET[8]: 1876
Assign SAMPLER_SET[9]: 2038  LLC: 2048
SAMPLER_SET[9]: 2038
Assign SAMPLER_SET[10]: 701  LLC: 2048
SAMPLER_SET[10]: 701
Assign SAMPLER_SET[11]: 479  LLC: 2048
SAMPLER_SET[11]: 479
Assign SAMPLER_SET[12]: 892  LLC: 2048
SAMPLER_SET[12]: 892
Assign SAMPLER_SET[13]: 1820  LLC: 2048
SAMPLER_SET[13]: 1820
Assign SAMPLER_SET[14]: 1505  LLC: 2048
SAMPLER_SET[14]: 1505
Assign SAMPLER_SET[15]: 1159  LLC: 2048
SAMPLER_SET[15]: 1159
Assign SAMPLER_SET[16]: 513  LLC: 2048
SAMPLER_SET[16]: 513
Assign SAMPLER_SET[17]: 703  LLC: 2048
SAMPLER_SET[17]: 703
Assign SAMPLER_SET[18]: 561  LLC: 2048
SAMPLER_SET[18]: 561
Assign SAMPLER_SET[19]: 990  LLC: 2048
SAMPLER_SET[19]: 990
Assign SAMPLER_SET[20]: 342  LLC: 2048
SAMPLER_SET[20]: 342
Assign SAMPLER_SET[21]: 882  LLC: 2048
SAMPLER_SET[21]: 882
Assign SAMPLER_SET[22]: 15  LLC: 2048
SAMPLER_SET[22]: 15
Assign SAMPLER_SET[23]: 71  LLC: 2048
SAMPLER_SET[23]: 71
Assign SAMPLER_SET[24]: 1127  LLC: 2048
SAMPLER_SET[24]: 1127
Assign SAMPLER_SET[25]: 1382  LLC: 2048
SAMPLER_SET[25]: 1382
Assign SAMPLER_SET[26]: 647  LLC: 2048
SAMPLER_SET[26]: 647
Assign SAMPLER_SET[27]: 857  LLC: 2048
SAMPLER_SET[27]: 857
Assign SAMPLER_SET[28]: 1450  LLC: 2048
SAMPLER_SET[28]: 1450
Assign SAMPLER_SET[29]: 1160  LLC: 2048
SAMPLER_SET[29]: 1160
Assign SAMPLER_SET[30]: 1852  LLC: 2048
SAMPLER_SET[30]: 1852
Assign SAMPLER_SET[31]: 1881  LLC: 2048
SAMPLER_SET[31]: 1881
Assign SAMPLER_SET[32]: 1770  LLC: 2048
SAMPLER_SET[32]: 1770
Assign SAMPLER_SET[33]: 1622  LLC: 2048
SAMPLER_SET[33]: 1622
Assign SAMPLER_SET[34]: 275  LLC: 2048
SAMPLER_SET[34]: 275
Assign SAMPLER_SET[35]: 635  LLC: 2048
SAMPLER_SET[35]: 635
Assign SAMPLER_SET[36]: 466  LLC: 2048
SAMPLER_SET[36]: 466
Assign SAMPLER_SET[37]: 1413  LLC: 2048
SAMPLER_SET[37]: 1413
Assign SAMPLER_SET[38]: 417  LLC: 2048
SAMPLER_SET[38]: 417
Assign SAMPLER_SET[39]: 472  LLC: 2048
SAMPLER_SET[39]: 472
Assign SAMPLER_SET[40]: 1340  LLC: 2048
SAMPLER_SET[40]: 1340
Assign SAMPLER_SET[41]: 852  LLC: 2048
SAMPLER_SET[41]: 852
Assign SAMPLER_SET[42]: 1365  LLC: 2048
SAMPLER_SET[42]: 1365
Assign SAMPLER_SET[43]: 47  LLC: 2048
SAMPLER_SET[43]: 47
Assign SAMPLER_SET[44]: 823  LLC: 2048
SAMPLER_SET[44]: 823
Assign SAMPLER_SET[45]: 686  LLC: 2048
SAMPLER_SET[45]: 686
Assign SAMPLER_SET[46]: 1637  LLC: 2048
SAMPLER_SET[46]: 1637
Assign SAMPLER_SET[47]: 1115  LLC: 2048
SAMPLER_SET[47]: 1115
Assign SAMPLER_SET[48]: 986  LLC: 2048
SAMPLER_SET[48]: 986
Assign SAMPLER_SET[49]: 258  LLC: 2048
SAMPLER_SET[49]: 258
Assign SAMPLER_SET[50]: 633  LLC: 2048
SAMPLER_SET[50]: 633
Assign SAMPLER_SET[51]: 920  LLC: 2048
SAMPLER_SET[51]: 920
Assign SAMPLER_SET[52]: 204  LLC: 2048
SAMPLER_SET[52]: 204
Assign SAMPLER_SET[53]: 227  LLC: 2048
SAMPLER_SET[53]: 227
Assign SAMPLER_SET[54]: 1818  LLC: 2048
SAMPLER_SET[54]: 1818
Assign SAMPLER_SET[55]: 886  LLC: 2048
SAMPLER_SET[55]: 886
Assign SAMPLER_SET[56]: 1422  LLC: 2048
SAMPLER_SET[56]: 1422
Assign SAMPLER_SET[57]: 607  LLC: 2048
SAMPLER_SET[57]: 607
Assign SAMPLER_SET[58]: 217  LLC: 2048
SAMPLER_SET[58]: 217
Assign SAMPLER_SET[59]: 1945  LLC: 2048
SAMPLER_SET[59]: 1945
Assign SAMPLER_SET[60]: 143  LLC: 2048
SAMPLER_SET[60]: 143
Assign SAMPLER_SET[61]: 1311  LLC: 2048
SAMPLER_SET[61]: 1311
Assign SAMPLER_SET[62]: 319  LLC: 2048
SAMPLER_SET[62]: 319
Assign SAMPLER_SET[63]: 1846  LLC: 2048
SAMPLER_SET[63]: 1846
Heartbeat CPU 0 instructions: 10000002 cycles: 3522106 heartbeat IPC: 2.83921 cumulative IPC: 2.83921 (Simulation time: 0 hr 0 min 26 sec) 
Heartbeat CPU 0 instructions: 20000003 cycles: 7041502 heartbeat IPC: 2.8414 cumulative IPC: 2.8403 (Simulation time: 0 hr 0 min 52 sec) 
Heartbeat CPU 0 instructions: 30000001 cycles: 10554440 heartbeat IPC: 2.84662 cumulative IPC: 2.84241 (Simulation time: 0 hr 1 min 18 sec) 
Heartbeat CPU 0 instructions: 40000000 cycles: 14080002 heartbeat IPC: 2.83643 cumulative IPC: 2.84091 (Simulation time: 0 hr 1 min 44 sec) 
Heartbeat CPU 0 instructions: 50000002 cycles: 17606370 heartbeat IPC: 2.83578 cumulative IPC: 2.83988 (Simulation time: 0 hr 2 min 10 sec) 
Heartbeat CPU 0 instructions: 60000002 cycles: 21141918 heartbeat IPC: 2.82842 cumulative IPC: 2.83796 (Simulation time: 0 hr 2 min 36 sec) 
Heartbeat CPU 0 instructions: 70000003 cycles: 24673774 heartbeat IPC: 2.83137 cumulative IPC: 2.83702 (Simulation time: 0 hr 3 min 3 sec) 
Heartbeat CPU 0 instructions: 80000000 cycles: 28195630 heartbeat IPC: 2.83941 cumulative IPC: 2.83732 (Simulation time: 0 hr 3 min 29 sec) 
Heartbeat CPU 0 instructions: 90000000 cycles: 31723411 heartbeat IPC: 2.83464 cumulative IPC: 2.83702 (Simulation time: 0 hr 3 min 55 sec) 
Heartbeat CPU 0 instructions: 100000000 cycles: 35243418 heartbeat IPC: 2.8409 cumulative IPC: 2.83741 (Simulation time: 0 hr 4 min 21 sec) 

Warmup complete CPU 0 instructions: 100000004 cycles: 35243419 (Simulation time: 0 hr 4 min 21 sec) 

Heartbeat CPU 0 instructions: 110000000 cycles: 62463804 heartbeat IPC: 0.367372 cumulative IPC: 0.367372 (Simulation time: 0 hr 5 min 7 sec) 
Heartbeat CPU 0 instructions: 120000001 cycles: 89135622 heartbeat IPC: 0.374928 cumulative IPC: 0.371111 (Simulation time: 0 hr 5 min 52 sec) 
Heartbeat CPU 0 instructions: 130000001 cycles: 115803826 heartbeat IPC: 0.374978 cumulative IPC: 0.372391 (Simulation time: 0 hr 6 min 38 sec) 
Heartbeat CPU 0 instructions: 140000002 cycles: 142606606 heartbeat IPC: 0.373096 cumulative IPC: 0.372567 (Simulation time: 0 hr 7 min 24 sec) 
Heartbeat CPU 0 instructions: 150000000 cycles: 169797814 heartbeat IPC: 0.367766 cumulative IPC: 0.371597 (Simulation time: 0 hr 8 min 10 sec) 
Heartbeat CPU 0 instructions: 160000001 cycles: 197246660 heartbeat IPC: 0.364314 cumulative IPC: 0.370363 (Simulation time: 0 hr 8 min 57 sec) 
Heartbeat CPU 0 instructions: 170000002 cycles: 224286265 heartbeat IPC: 0.369828 cumulative IPC: 0.370286 (Simulation time: 0 hr 9 min 43 sec) 
Heartbeat CPU 0 instructions: 180000000 cycles: 251458811 heartbeat IPC: 0.368018 cumulative IPC: 0.370001 (Simulation time: 0 hr 10 min 29 sec) 
Heartbeat CPU 0 instructions: 190000002 cycles: 278853045 heartbeat IPC: 0.36504 cumulative IPC: 0.369444 (Simulation time: 0 hr 11 min 15 sec) 
Heartbeat CPU 0 instructions: 200000002 cycles: 305573146 heartbeat IPC: 0.37425 cumulative IPC: 0.369919 (Simulation time: 0 hr 12 min 1 sec) 
Heartbeat CPU 0 instructions: 210000001 cycles: 332811010 heartbeat IPC: 0.367136 cumulative IPC: 0.369664 (Simulation time: 0 hr 12 min 47 sec) 
Heartbeat CPU 0 instructions: 220000000 cycles: 361139312 heartbeat IPC: 0.353004 cumulative IPC: 0.368216 (Simulation time: 0 hr 13 min 35 sec) 
Heartbeat CPU 0 instructions: 230000000 cycles: 388691189 heartbeat IPC: 0.362952 cumulative IPC: 0.367805 (Simulation time: 0 hr 14 min 21 sec) 
Heartbeat CPU 0 instructions: 240000001 cycles: 415992692 heartbeat IPC: 0.36628 cumulative IPC: 0.367696 (Simulation time: 0 hr 15 min 7 sec) 
Heartbeat CPU 0 instructions: 250000000 cycles: 442967226 heartbeat IPC: 0.37072 cumulative IPC: 0.367896 (Simulation time: 0 hr 15 min 53 sec) 
Heartbeat CPU 0 instructions: 260000002 cycles: 469434634 heartbeat IPC: 0.377823 cumulative IPC: 0.368501 (Simulation time: 0 hr 16 min 39 sec) 
Heartbeat CPU 0 instructions: 270000001 cycles: 495726464 heartbeat IPC: 0.380346 cumulative IPC: 0.369178 (Simulation time: 0 hr 17 min 24 sec) 
Heartbeat CPU 0 instructions: 280000002 cycles: 522132168 heartbeat IPC: 0.378706 cumulative IPC: 0.369694 (Simulation time: 0 hr 18 min 10 sec) 
Heartbeat CPU 0 instructions: 290000000 cycles: 548607704 heartbeat IPC: 0.377707 cumulative IPC: 0.370108 (Simulation time: 0 hr 18 min 55 sec) 
Heartbeat CPU 0 instructions: 300000003 cycles: 575374595 heartbeat IPC: 0.373596 cumulative IPC: 0.37028 (Simulation time: 0 hr 19 min 41 sec) 
Heartbeat CPU 0 instructions: 310000001 cycles: 602154927 heartbeat IPC: 0.373408 cumulative IPC: 0.370428 (Simulation time: 0 hr 20 min 26 sec) 
Heartbeat CPU 0 instructions: 320000001 cycles: 628887117 heartbeat IPC: 0.374081 cumulative IPC: 0.370593 (Simulation time: 0 hr 21 min 12 sec) 
Heartbeat CPU 0 instructions: 330000000 cycles: 655742940 heartbeat IPC: 0.372359 cumulative IPC: 0.370669 (Simulation time: 0 hr 21 min 58 sec) 
Heartbeat CPU 0 instructions: 340000002 cycles: 681754314 heartbeat IPC: 0.384447 cumulative IPC: 0.371223 (Simulation time: 0 hr 22 min 43 sec) 
Heartbeat CPU 0 instructions: 350000001 cycles: 707414598 heartbeat IPC: 0.389707 cumulative IPC: 0.371929 (Simulation time: 0 hr 23 min 27 sec) 
Heartbeat CPU 0 instructions: 360000001 cycles: 733531537 heartbeat IPC: 0.382893 cumulative IPC: 0.372339 (Simulation time: 0 hr 24 min 12 sec) 
Heartbeat CPU 0 instructions: 370000002 cycles: 759988225 heartbeat IPC: 0.377976 cumulative IPC: 0.372545 (Simulation time: 0 hr 24 min 57 sec) 
Heartbeat CPU 0 instructions: 380000002 cycles: 786070495 heartbeat IPC: 0.383402 cumulative IPC: 0.372922 (Simulation time: 0 hr 25 min 42 sec) 
Heartbeat CPU 0 instructions: 390000003 cycles: 812046049 heartbeat IPC: 0.384977 cumulative IPC: 0.373325 (Simulation time: 0 hr 26 min 27 sec) 
Heartbeat CPU 0 instructions: 400000000 cycles: 838111561 heartbeat IPC: 0.383649 cumulative IPC: 0.37366 (Simulation time: 0 hr 27 min 12 sec) 
Heartbeat CPU 0 instructions: 410000002 cycles: 864597803 heartbeat IPC: 0.377555 cumulative IPC: 0.373785 (Simulation time: 0 hr 27 min 57 sec) 
Heartbeat CPU 0 instructions: 420000002 cycles: 890883855 heartbeat IPC: 0.38043 cumulative IPC: 0.373989 (Simulation time: 0 hr 28 min 42 sec) 
Heartbeat CPU 0 instructions: 430000000 cycles: 917993287 heartbeat IPC: 0.368875 cumulative IPC: 0.373832 (Simulation time: 0 hr 29 min 28 sec) 
Heartbeat CPU 0 instructions: 440000000 cycles: 944940036 heartbeat IPC: 0.371102 cumulative IPC: 0.373751 (Simulation time: 0 hr 30 min 14 sec) 
Heartbeat CPU 0 instructions: 450000000 cycles: 971205898 heartbeat IPC: 0.380722 cumulative IPC: 0.373947 (Simulation time: 0 hr 30 min 59 sec) 
Heartbeat CPU 0 instructions: 460000000 cycles: 996219963 heartbeat IPC: 0.399775 cumulative IPC: 0.374619 (Simulation time: 0 hr 31 min 42 sec) 
Heartbeat CPU 0 instructions: 470000000 cycles: 1020916643 heartbeat IPC: 0.404913 cumulative IPC: 0.375378 (Simulation time: 0 hr 32 min 26 sec) 
Heartbeat CPU 0 instructions: 480000000 cycles: 1044710633 heartbeat IPC: 0.420274 cumulative IPC: 0.376436 (Simulation time: 0 hr 33 min 8 sec) 
Heartbeat CPU 0 instructions: 490000001 cycles: 1067735555 heartbeat IPC: 0.434312 cumulative IPC: 0.377727 (Simulation time: 0 hr 33 min 50 sec) 
Heartbeat CPU 0 instructions: 500000001 cycles: 1090007785 heartbeat IPC: 0.44899 cumulative IPC: 0.379232 (Simulation time: 0 hr 34 min 31 sec) 
Heartbeat CPU 0 instructions: 510000000 cycles: 1111690124 heartbeat IPC: 0.461205 cumulative IPC: 0.380883 (Simulation time: 0 hr 35 min 12 sec) 
Heartbeat CPU 0 instructions: 520000001 cycles: 1132422916 heartbeat IPC: 0.482328 cumulative IPC: 0.3828 (Simulation time: 0 hr 35 min 52 sec) 
Heartbeat CPU 0 instructions: 530000001 cycles: 1152303216 heartbeat IPC: 0.503011 cumulative IPC: 0.384939 (Simulation time: 0 hr 36 min 31 sec) 
Heartbeat CPU 0 instructions: 540000001 cycles: 1171395745 heartbeat IPC: 0.523765 cumulative IPC: 0.387272 (Simulation time: 0 hr 37 min 9 sec) 
Heartbeat CPU 0 instructions: 550000000 cycles: 1189283475 heartbeat IPC: 0.559042 cumulative IPC: 0.389934 (Simulation time: 0 hr 37 min 46 sec) 
Heartbeat CPU 0 instructions: 560000003 cycles: 1207204554 heartbeat IPC: 0.558002 cumulative IPC: 0.392504 (Simulation time: 0 hr 38 min 23 sec) 
Heartbeat CPU 0 instructions: 570000001 cycles: 1223998404 heartbeat IPC: 0.595456 cumulative IPC: 0.395372 (Simulation time: 0 hr 38 min 59 sec) 
Heartbeat CPU 0 instructions: 580000000 cycles: 1241122504 heartbeat IPC: 0.583972 cumulative IPC: 0.39805 (Simulation time: 0 hr 39 min 35 sec) 
Heartbeat CPU 0 instructions: 590000000 cycles: 1257475055 heartbeat IPC: 0.611525 cumulative IPC: 0.400906 (Simulation time: 0 hr 40 min 10 sec) 
Heartbeat CPU 0 instructions: 600000002 cycles: 1273204408 heartbeat IPC: 0.635754 cumulative IPC: 0.40389 (Simulation time: 0 hr 40 min 45 sec) 
Heartbeat CPU 0 instructions: 610000002 cycles: 1288703155 heartbeat IPC: 0.645213 cumulative IPC: 0.406874 (Simulation time: 0 hr 41 min 21 sec) 
Heartbeat CPU 0 instructions: 620000003 cycles: 1304379279 heartbeat IPC: 0.637913 cumulative IPC: 0.409728 (Simulation time: 0 hr 41 min 56 sec) 
Heartbeat CPU 0 instructions: 630000002 cycles: 1319811025 heartbeat IPC: 0.648015 cumulative IPC: 0.41259 (Simulation time: 0 hr 42 min 30 sec) 
Heartbeat CPU 0 instructions: 640000001 cycles: 1335132367 heartbeat IPC: 0.652684 cumulative IPC: 0.41542 (Simulation time: 0 hr 43 min 4 sec) 
Heartbeat CPU 0 instructions: 650000002 cycles: 1350390863 heartbeat IPC: 0.655373 cumulative IPC: 0.418204 (Simulation time: 0 hr 43 min 39 sec) 
Heartbeat CPU 0 instructions: 660000000 cycles: 1364727561 heartbeat IPC: 0.697511 cumulative IPC: 0.421216 (Simulation time: 0 hr 44 min 12 sec) 
Heartbeat CPU 0 instructions: 670000002 cycles: 1379434428 heartbeat IPC: 0.679955 cumulative IPC: 0.424047 (Simulation time: 0 hr 44 min 46 sec) 
Heartbeat CPU 0 instructions: 680000002 cycles: 1393992473 heartbeat IPC: 0.686905 cumulative IPC: 0.426863 (Simulation time: 0 hr 45 min 20 sec) 
Heartbeat CPU 0 instructions: 690000003 cycles: 1408367366 heartbeat IPC: 0.695657 cumulative IPC: 0.429677 (Simulation time: 0 hr 45 min 53 sec) 
Heartbeat CPU 0 instructions: 700000000 cycles: 1423182610 heartbeat IPC: 0.67498 cumulative IPC: 0.432296 (Simulation time: 0 hr 46 min 27 sec) 
Heartbeat CPU 0 instructions: 710000001 cycles: 1437741390 heartbeat IPC: 0.686871 cumulative IPC: 0.434938 (Simulation time: 0 hr 47 min 1 sec) 
Heartbeat CPU 0 instructions: 720000003 cycles: 1452311878 heartbeat IPC: 0.686319 cumulative IPC: 0.437523 (Simulation time: 0 hr 47 min 35 sec) 
Heartbeat CPU 0 instructions: 730000001 cycles: 1466496534 heartbeat IPC: 0.704987 cumulative IPC: 0.440174 (Simulation time: 0 hr 48 min 9 sec) 
Heartbeat CPU 0 instructions: 740000003 cycles: 1481071781 heartbeat IPC: 0.686095 cumulative IPC: 0.442653 (Simulation time: 0 hr 48 min 42 sec) 
Heartbeat CPU 0 instructions: 750000002 cycles: 1495066875 heartbeat IPC: 0.714536 cumulative IPC: 0.445259 (Simulation time: 0 hr 49 min 15 sec) 
Heartbeat CPU 0 instructions: 760000002 cycles: 1509070082 heartbeat IPC: 0.714122 cumulative IPC: 0.447814 (Simulation time: 0 hr 49 min 49 sec) 
Heartbeat CPU 0 instructions: 770000000 cycles: 1523359480 heartbeat IPC: 0.699819 cumulative IPC: 0.450234 (Simulation time: 0 hr 50 min 22 sec) 
Heartbeat CPU 0 instructions: 780000001 cycles: 1537529566 heartbeat IPC: 0.705712 cumulative IPC: 0.452643 (Simulation time: 0 hr 50 min 57 sec) 
Heartbeat CPU 0 instructions: 790000003 cycles: 1551787980 heartbeat IPC: 0.70134 cumulative IPC: 0.454982 (Simulation time: 0 hr 51 min 30 sec) 
Heartbeat CPU 0 instructions: 800000001 cycles: 1565856571 heartbeat IPC: 0.710803 cumulative IPC: 0.457333 (Simulation time: 0 hr 52 min 2 sec) 
Heartbeat CPU 0 instructions: 810000002 cycles: 1580381381 heartbeat IPC: 0.688477 cumulative IPC: 0.459506 (Simulation time: 0 hr 52 min 35 sec) 
Heartbeat CPU 0 instructions: 820000000 cycles: 1594295172 heartbeat IPC: 0.718711 cumulative IPC: 0.461819 (Simulation time: 0 hr 53 min 8 sec) 
Heartbeat CPU 0 instructions: 830000000 cycles: 1608294618 heartbeat IPC: 0.714314 cumulative IPC: 0.464066 (Simulation time: 0 hr 53 min 41 sec) 
Heartbeat CPU 0 instructions: 840000002 cycles: 1622398893 heartbeat IPC: 0.709005 cumulative IPC: 0.466243 (Simulation time: 0 hr 54 min 14 sec) 
Heartbeat CPU 0 instructions: 850000000 cycles: 1636544061 heartbeat IPC: 0.706955 cumulative IPC: 0.468369 (Simulation time: 0 hr 54 min 47 sec) 
Heartbeat CPU 0 instructions: 860000002 cycles: 1650616384 heartbeat IPC: 0.710615 cumulative IPC: 0.47048 (Simulation time: 0 hr 55 min 20 sec) 
Heartbeat CPU 0 instructions: 870000000 cycles: 1664843073 heartbeat IPC: 0.702904 cumulative IPC: 0.472509 (Simulation time: 0 hr 55 min 54 sec) 
Heartbeat CPU 0 instructions: 880000000 cycles: 1679132681 heartbeat IPC: 0.699809 cumulative IPC: 0.474485 (Simulation time: 0 hr 56 min 28 sec) 
Heartbeat CPU 0 instructions: 890000003 cycles: 1693118377 heartbeat IPC: 0.715016 cumulative IPC: 0.476514 (Simulation time: 0 hr 57 min 1 sec) 
Heartbeat CPU 0 instructions: 900000001 cycles: 1707574198 heartbeat IPC: 0.691763 cumulative IPC: 0.478374 (Simulation time: 0 hr 57 min 34 sec) 
Heartbeat CPU 0 instructions: 910000003 cycles: 1721883753 heartbeat IPC: 0.698834 cumulative IPC: 0.480245 (Simulation time: 0 hr 58 min 7 sec) 
Heartbeat CPU 0 instructions: 920000000 cycles: 1736229912 heartbeat IPC: 0.69705 cumulative IPC: 0.482073 (Simulation time: 0 hr 58 min 40 sec) 
Heartbeat CPU 0 instructions: 930000002 cycles: 1750508114 heartbeat IPC: 0.700368 cumulative IPC: 0.48389 (Simulation time: 0 hr 59 min 13 sec) 
Heartbeat CPU 0 instructions: 940000002 cycles: 1765470757 heartbeat IPC: 0.668331 cumulative IPC: 0.485485 (Simulation time: 0 hr 59 min 47 sec) 
Heartbeat CPU 0 instructions: 950000001 cycles: 1800430030 heartbeat IPC: 0.286047 cumulative IPC: 0.481535 (Simulation time: 1 hr 0 min 43 sec) 
Heartbeat CPU 0 instructions: 960000001 cycles: 1828343671 heartbeat IPC: 0.358248 cumulative IPC: 0.479616 (Simulation time: 1 hr 1 min 30 sec) 
Heartbeat CPU 0 instructions: 970000002 cycles: 1843770376 heartbeat IPC: 0.648227 cumulative IPC: 0.481054 (Simulation time: 1 hr 2 min 4 sec) 
Heartbeat CPU 0 instructions: 980000000 cycles: 1858444138 heartbeat IPC: 0.681488 cumulative IPC: 0.482668 (Simulation time: 1 hr 2 min 37 sec) 
Heartbeat CPU 0 instructions: 990000000 cycles: 1873161814 heartbeat IPC: 0.679455 cumulative IPC: 0.484243 (Simulation time: 1 hr 3 min 10 sec) 
Heartbeat CPU 0 instructions: 1000000003 cycles: 1887196120 heartbeat IPC: 0.71254 cumulative IPC: 0.485974 (Simulation time: 1 hr 3 min 43 sec) 
Heartbeat CPU 0 instructions: 1010000002 cycles: 1901289297 heartbeat IPC: 0.709563 cumulative IPC: 0.487662 (Simulation time: 1 hr 4 min 17 sec) 
Heartbeat CPU 0 instructions: 1020000003 cycles: 1915371000 heartbeat IPC: 0.710141 cumulative IPC: 0.489329 (Simulation time: 1 hr 4 min 51 sec) 
Heartbeat CPU 0 instructions: 1030000001 cycles: 1929445664 heartbeat IPC: 0.710496 cumulative IPC: 0.490972 (Simulation time: 1 hr 5 min 25 sec) 
Heartbeat CPU 0 instructions: 1040000003 cycles: 1943630994 heartbeat IPC: 0.704954 cumulative IPC: 0.492562 (Simulation time: 1 hr 5 min 58 sec) 
Heartbeat CPU 0 instructions: 1050000000 cycles: 1957899474 heartbeat IPC: 0.700845 cumulative IPC: 0.494108 (Simulation time: 1 hr 6 min 32 sec) 
Heartbeat CPU 0 instructions: 1060000001 cycles: 1971857355 heartbeat IPC: 0.716441 cumulative IPC: 0.495711 (Simulation time: 1 hr 7 min 6 sec) 
Heartbeat CPU 0 instructions: 1070000003 cycles: 1985938295 heartbeat IPC: 0.71018 cumulative IPC: 0.497259 (Simulation time: 1 hr 7 min 41 sec) 
Heartbeat CPU 0 instructions: 1080000000 cycles: 2000195259 heartbeat IPC: 0.701411 cumulative IPC: 0.49874 (Simulation time: 1 hr 8 min 14 sec) 
Heartbeat CPU 0 instructions: 1090000002 cycles: 2014406390 heartbeat IPC: 0.703674 cumulative IPC: 0.500211 (Simulation time: 1 hr 8 min 49 sec) 
Heartbeat CPU 0 instructions: 1100000000 cycles: 2028750187 heartbeat IPC: 0.697165 cumulative IPC: 0.501629 (Simulation time: 1 hr 9 min 23 sec) 
Finished CPU 0 instructions: 1000000000 cycles: 1993507017 cumulative IPC: 0.501629 (Simulation time: 1 hr 9 min 23 sec) 

ChampSim completed all CPUs

Region of Interest Statistics

CPU 0 cumulative IPC: 0.501629 instructions: 1000000000 cycles: 1993507017
L1D TOTAL     ACCESS:  250407516  HIT:  195178532  MISS:   55228984
L1D LOAD      ACCESS:   85983684  HIT:   77608627  MISS:    8375057
L1D RFO       ACCESS:  164423832  HIT:  117569905  MISS:   46853927
L1D PREFETCH  ACCESS:          0  HIT:          0  MISS:          0
L1D WRITEBACK ACCESS:          0  HIT:          0  MISS:          0
L1D PREFETCH  REQUESTED:          0  ISSUED:          0  USEFUL:          0  USELESS:          0
L1D AVERAGE MISS LATENCY: 341.605 cycles
L1I TOTAL     ACCESS:  154325436  HIT:  154325433  MISS:          3
L1I LOAD      ACCESS:  154325436  HIT:  154325433  MISS:          3
L1I RFO       ACCESS:          0  HIT:          0  MISS:          0
L1I PREFETCH  ACCESS:          0  HIT:          0  MISS:          0
L1I WRITEBACK ACCESS:          0  HIT:          0  MISS:          0
L1I PREFETCH  REQUESTED:          0  ISSUED:          0  USEFUL:          0  USELESS:          0
L1I AVERAGE MISS LATENCY: 344.333 cycles
L2C TOTAL     ACCESS:  102082726  HIT:   58530939  MISS:   43551787
L2C LOAD      ACCESS:    8375060  HIT:       5277  MISS:    8369783
L2C RFO       ACCESS:   46853736  HIT:   11679738  MISS:   35173998
L2C PREFETCH  ACCESS:          0  HIT:          0  MISS:          0
L2C WRITEBACK ACCESS:   46853930  HIT:   46845924  MISS:       8006
L2C PREFETCH  REQUESTED:          0  ISSUED:          0  USEFUL:          0  USELESS:          0
L2C AVERAGE MISS LATENCY: 415.85 cycles
LLC TOTAL     ACCESS:   78721645  HIT:   27481993  MISS:   51239652
LLC LOAD      ACCESS:    8369783  HIT:       5033  MISS:    8364750
LLC RFO       ACCESS:   35169294  HIT:    8681313  MISS:   26487981
LLC PREFETCH  ACCESS:          0  HIT:          0  MISS:          0
LLC WRITEBACK ACCESS:   35182568  HIT:   18795647  MISS:   16386921
LLC PREFETCH  REQUESTED:          0  ISSUED:          0  USEFUL:          0  USELESS:          0
LLC AVERAGE MISS LATENCY: 318.287 cycles
Major fault: 0 Minor fault: 304584
==============================
Perceptron RRIP Stats:
   Num Updates:          2141081
   Num Primary Trains:   193518
   Num Secondary Trains: 182487
==============================
primary_perceptron #0: 0 -4 -4 -2 -2 8 0 -2 0 0 0 0 2 -2 0 -14 
secondary_perceptron #0: -1 -7 -5 -7 -1 11 -1 -5 1 3 3 1 -1 -3 -3 5 -3 -5 -1 -7 -23 


DRAM Statistics
 CHANNEL 0
 RQ ROW_BUFFER_HIT:    1855132  ROW_BUFFER_MISS:   32949725
 DBUS_CONGESTED:   33818039
 WQ ROW_BUFFER_HIT:    5927813  ROW_BUFFER_MISS:   20569800  FULL:      12408

 AVG_CONGESTED_CYCLE: 6

CPU 0 Branch Prediction Accuracy: 97.1481% MPKI: 0.40653 Average ROB Occupancy at Mispredict: 246.104

Branch types
NOT_BRANCH: 985745443 98.5745%
BRANCH_DIRECT_JUMP: 1582739 0.158274%
BRANCH_INDIRECT: 0 0%
BRANCH_CONDITIONAL: 12671818 1.26718%
BRANCH_DIRECT_CALL: 2 2e-07%
BRANCH_INDIRECT_CALL: 0 0%
BRANCH_RETURN: 2 2e-07%
BRANCH_OTHER: 0 0%

