
*** ChampSim Multicore Out-of-Order Simulator ***

Warmup Instructions: 100000000
Simulation Instructions: 1000000000
Number of CPUs: 1
LLC sets: 2048
LLC ways: 16
Off-chip DRAM Size: 4096 MB Channels: 1 Width: 64-bit Data Rate: 3200 MT/s

CPU 0 runs /scratch/user/kevin.weston/dpc3-traces/619.champsimtrace.xz
CPU 0 Bimodal branch predictor
Initialize SHIP state
Assign rand_sets[0]: 454  LLC: 2048
rand_sets[0]: 454
Assign rand_sets[1]: 1662  LLC: 2048
rand_sets[1]: 1662
Assign rand_sets[2]: 1921  LLC: 2048
rand_sets[2]: 1921
Assign rand_sets[3]: 1131  LLC: 2048
rand_sets[3]: 1131
Assign rand_sets[4]: 331  LLC: 2048
rand_sets[4]: 331
Assign rand_sets[5]: 1531  LLC: 2048
rand_sets[5]: 1531
Assign rand_sets[6]: 482  LLC: 2048
rand_sets[6]: 482
Assign rand_sets[7]: 1275  LLC: 2048
rand_sets[7]: 1275
Assign rand_sets[8]: 1876  LLC: 2048
rand_sets[8]: 1876
Assign rand_sets[9]: 2038  LLC: 2048
rand_sets[9]: 2038
Assign rand_sets[10]: 701  LLC: 2048
rand_sets[10]: 701
Assign rand_sets[11]: 479  LLC: 2048
rand_sets[11]: 479
Assign rand_sets[12]: 892  LLC: 2048
rand_sets[12]: 892
Assign rand_sets[13]: 1820  LLC: 2048
rand_sets[13]: 1820
Assign rand_sets[14]: 1505  LLC: 2048
rand_sets[14]: 1505
Assign rand_sets[15]: 1159  LLC: 2048
rand_sets[15]: 1159
Assign rand_sets[16]: 513  LLC: 2048
rand_sets[16]: 513
Assign rand_sets[17]: 703  LLC: 2048
rand_sets[17]: 703
Assign rand_sets[18]: 561  LLC: 2048
rand_sets[18]: 561
Assign rand_sets[19]: 990  LLC: 2048
rand_sets[19]: 990
Assign rand_sets[20]: 342  LLC: 2048
rand_sets[20]: 342
Assign rand_sets[21]: 882  LLC: 2048
rand_sets[21]: 882
Assign rand_sets[22]: 15  LLC: 2048
rand_sets[22]: 15
Assign rand_sets[23]: 71  LLC: 2048
rand_sets[23]: 71
Assign rand_sets[24]: 1127  LLC: 2048
rand_sets[24]: 1127
Assign rand_sets[25]: 1382  LLC: 2048
rand_sets[25]: 1382
Assign rand_sets[26]: 647  LLC: 2048
rand_sets[26]: 647
Assign rand_sets[27]: 857  LLC: 2048
rand_sets[27]: 857
Assign rand_sets[28]: 1450  LLC: 2048
rand_sets[28]: 1450
Assign rand_sets[29]: 1160  LLC: 2048
rand_sets[29]: 1160
Assign rand_sets[30]: 1852  LLC: 2048
rand_sets[30]: 1852
Assign rand_sets[31]: 1881  LLC: 2048
rand_sets[31]: 1881
Assign rand_sets[32]: 1770  LLC: 2048
rand_sets[32]: 1770
Assign rand_sets[33]: 1622  LLC: 2048
rand_sets[33]: 1622
Assign rand_sets[34]: 275  LLC: 2048
rand_sets[34]: 275
Assign rand_sets[35]: 635  LLC: 2048
rand_sets[35]: 635
Assign rand_sets[36]: 466  LLC: 2048
rand_sets[36]: 466
Assign rand_sets[37]: 1413  LLC: 2048
rand_sets[37]: 1413
Assign rand_sets[38]: 417  LLC: 2048
rand_sets[38]: 417
Assign rand_sets[39]: 472  LLC: 2048
rand_sets[39]: 472
Assign rand_sets[40]: 1340  LLC: 2048
rand_sets[40]: 1340
Assign rand_sets[41]: 852  LLC: 2048
rand_sets[41]: 852
Assign rand_sets[42]: 1365  LLC: 2048
rand_sets[42]: 1365
Assign rand_sets[43]: 47  LLC: 2048
rand_sets[43]: 47
Assign rand_sets[44]: 823  LLC: 2048
rand_sets[44]: 823
Assign rand_sets[45]: 686  LLC: 2048
rand_sets[45]: 686
Assign rand_sets[46]: 1637  LLC: 2048
rand_sets[46]: 1637
Assign rand_sets[47]: 1115  LLC: 2048
rand_sets[47]: 1115
Assign rand_sets[48]: 986  LLC: 2048
rand_sets[48]: 986
Assign rand_sets[49]: 258  LLC: 2048
rand_sets[49]: 258
Assign rand_sets[50]: 633  LLC: 2048
rand_sets[50]: 633
Assign rand_sets[51]: 920  LLC: 2048
rand_sets[51]: 920
Assign rand_sets[52]: 204  LLC: 2048
rand_sets[52]: 204
Assign rand_sets[53]: 227  LLC: 2048
rand_sets[53]: 227
Assign rand_sets[54]: 1818  LLC: 2048
rand_sets[54]: 1818
Assign rand_sets[55]: 886  LLC: 2048
rand_sets[55]: 886
Assign rand_sets[56]: 1422  LLC: 2048
rand_sets[56]: 1422
Assign rand_sets[57]: 607  LLC: 2048
rand_sets[57]: 607
Assign rand_sets[58]: 217  LLC: 2048
rand_sets[58]: 217
Assign rand_sets[59]: 1945  LLC: 2048
rand_sets[59]: 1945
Assign rand_sets[60]: 143  LLC: 2048
rand_sets[60]: 143
Assign rand_sets[61]: 1311  LLC: 2048
rand_sets[61]: 1311
Assign rand_sets[62]: 319  LLC: 2048
rand_sets[62]: 319
Assign rand_sets[63]: 1846  LLC: 2048
rand_sets[63]: 1846
Assign rand_sets[64]: 238  LLC: 2048
rand_sets[64]: 238
Assign rand_sets[65]: 67  LLC: 2048
rand_sets[65]: 67
Assign rand_sets[66]: 1912  LLC: 2048
rand_sets[66]: 1912
Assign rand_sets[67]: 1613  LLC: 2048
rand_sets[67]: 1613
Assign rand_sets[68]: 1293  LLC: 2048
rand_sets[68]: 1293
Assign rand_sets[69]: 1018  LLC: 2048
rand_sets[69]: 1018
Assign rand_sets[70]: 1982  LLC: 2048
rand_sets[70]: 1982
Assign rand_sets[71]: 1702  LLC: 2048
rand_sets[71]: 1702
Assign rand_sets[72]: 1498  LLC: 2048
rand_sets[72]: 1498
Assign rand_sets[73]: 228  LLC: 2048
rand_sets[73]: 228
Assign rand_sets[74]: 1414  LLC: 2048
rand_sets[74]: 1414
Assign rand_sets[75]: 1166  LLC: 2048
rand_sets[75]: 1166
Assign rand_sets[76]: 732  LLC: 2048
rand_sets[76]: 732
Assign rand_sets[77]: 297  LLC: 2048
rand_sets[77]: 297
Assign rand_sets[78]: 1133  LLC: 2048
rand_sets[78]: 1133
Assign rand_sets[79]: 846  LLC: 2048
rand_sets[79]: 846
Assign rand_sets[80]: 767  LLC: 2048
rand_sets[80]: 767
Assign rand_sets[81]: 1878  LLC: 2048
rand_sets[81]: 1878
Assign rand_sets[82]: 993  LLC: 2048
rand_sets[82]: 993
Assign rand_sets[83]: 1392  LLC: 2048
rand_sets[83]: 1392
Assign rand_sets[84]: 1568  LLC: 2048
rand_sets[84]: 1568
Assign rand_sets[85]: 1787  LLC: 2048
rand_sets[85]: 1787
Assign rand_sets[86]: 399  LLC: 2048
rand_sets[86]: 399
Assign rand_sets[87]: 1201  LLC: 2048
rand_sets[87]: 1201
Assign rand_sets[88]: 856  LLC: 2048
rand_sets[88]: 856
Assign rand_sets[89]: 773  LLC: 2048
rand_sets[89]: 773
Assign rand_sets[90]: 1680  LLC: 2048
rand_sets[90]: 1680
Assign rand_sets[91]: 1477  LLC: 2048
rand_sets[91]: 1477
Assign rand_sets[92]: 9  LLC: 2048
rand_sets[92]: 9
Assign rand_sets[93]: 1500  LLC: 2048
rand_sets[93]: 1500
Assign rand_sets[94]: 851  LLC: 2048
rand_sets[94]: 851
Assign rand_sets[95]: 973  LLC: 2048
rand_sets[95]: 973
Assign rand_sets[96]: 938  LLC: 2048
rand_sets[96]: 938
Assign rand_sets[97]: 1851  LLC: 2048
rand_sets[97]: 1851
Assign rand_sets[98]: 1608  LLC: 2048
rand_sets[98]: 1608
Assign rand_sets[99]: 1945  LLC: 2048
Assign rand_sets[99]: 1106  LLC: 2048
rand_sets[99]: 1106
Assign rand_sets[100]: 979  LLC: 2048
rand_sets[100]: 979
Assign rand_sets[101]: 338  LLC: 2048
rand_sets[101]: 338
Assign rand_sets[102]: 1693  LLC: 2048
rand_sets[102]: 1693
Assign rand_sets[103]: 6  LLC: 2048
rand_sets[103]: 6
Assign rand_sets[104]: 671  LLC: 2048
rand_sets[104]: 671
Assign rand_sets[105]: 490  LLC: 2048
rand_sets[105]: 490
Assign rand_sets[106]: 1461  LLC: 2048
rand_sets[106]: 1461
Assign rand_sets[107]: 1730  LLC: 2048
rand_sets[107]: 1730
Assign rand_sets[108]: 1030  LLC: 2048
rand_sets[108]: 1030
Assign rand_sets[109]: 19  LLC: 2048
rand_sets[109]: 19
Assign rand_sets[110]: 920  LLC: 2048
Assign rand_sets[110]: 329  LLC: 2048
rand_sets[110]: 329
Assign rand_sets[111]: 1714  LLC: 2048
rand_sets[111]: 1714
Assign rand_sets[112]: 1  LLC: 2048
rand_sets[112]: 1
Assign rand_sets[113]: 1822  LLC: 2048
rand_sets[113]: 1822
Assign rand_sets[114]: 172  LLC: 2048
rand_sets[114]: 172
Assign rand_sets[115]: 1586  LLC: 2048
rand_sets[115]: 1586
Assign rand_sets[116]: 648  LLC: 2048
rand_sets[116]: 648
Assign rand_sets[117]: 1329  LLC: 2048
rand_sets[117]: 1329
Assign rand_sets[118]: 668  LLC: 2048
rand_sets[118]: 668
Assign rand_sets[119]: 1874  LLC: 2048
rand_sets[119]: 1874
Assign rand_sets[120]: 70  LLC: 2048
rand_sets[120]: 70
Assign rand_sets[121]: 661  LLC: 2048
rand_sets[121]: 661
Assign rand_sets[122]: 1649  LLC: 2048
rand_sets[122]: 1649
Assign rand_sets[123]: 1590  LLC: 2048
rand_sets[123]: 1590
Assign rand_sets[124]: 911  LLC: 2048
rand_sets[124]: 911
Assign rand_sets[125]: 1367  LLC: 2048
rand_sets[125]: 1367
Assign rand_sets[126]: 1782  LLC: 2048
rand_sets[126]: 1782
Assign rand_sets[127]: 569  LLC: 2048
rand_sets[127]: 569
Heartbeat CPU 0 instructions: 10000002 cycles: 3522075 heartbeat IPC: 2.83924 cumulative IPC: 2.83924 (Simulation time: 0 hr 0 min 25 sec) 
Heartbeat CPU 0 instructions: 20000003 cycles: 7041288 heartbeat IPC: 2.84154 cumulative IPC: 2.84039 (Simulation time: 0 hr 0 min 50 sec) 
Heartbeat CPU 0 instructions: 30000001 cycles: 10554112 heartbeat IPC: 2.84671 cumulative IPC: 2.84249 (Simulation time: 0 hr 1 min 15 sec) 
Heartbeat CPU 0 instructions: 40000000 cycles: 14079900 heartbeat IPC: 2.83625 cumulative IPC: 2.84093 (Simulation time: 0 hr 1 min 39 sec) 
Heartbeat CPU 0 instructions: 50000002 cycles: 17606525 heartbeat IPC: 2.83557 cumulative IPC: 2.83986 (Simulation time: 0 hr 2 min 4 sec) 
Heartbeat CPU 0 instructions: 60000002 cycles: 21141783 heartbeat IPC: 2.82865 cumulative IPC: 2.83798 (Simulation time: 0 hr 2 min 29 sec) 
Heartbeat CPU 0 instructions: 70000003 cycles: 24673828 heartbeat IPC: 2.83122 cumulative IPC: 2.83701 (Simulation time: 0 hr 2 min 53 sec) 
Heartbeat CPU 0 instructions: 80000000 cycles: 28195849 heartbeat IPC: 2.83928 cumulative IPC: 2.8373 (Simulation time: 0 hr 3 min 18 sec) 
Heartbeat CPU 0 instructions: 90000000 cycles: 31723370 heartbeat IPC: 2.83485 cumulative IPC: 2.83703 (Simulation time: 0 hr 3 min 43 sec) 
Heartbeat CPU 0 instructions: 100000000 cycles: 35243040 heartbeat IPC: 2.84118 cumulative IPC: 2.83744 (Simulation time: 0 hr 4 min 7 sec) 

Warmup complete CPU 0 instructions: 100000004 cycles: 35243041 (Simulation time: 0 hr 4 min 7 sec) 

Heartbeat CPU 0 instructions: 110000000 cycles: 61456528 heartbeat IPC: 0.381483 cumulative IPC: 0.381483 (Simulation time: 0 hr 4 min 53 sec) 
Heartbeat CPU 0 instructions: 120000001 cycles: 87936034 heartbeat IPC: 0.377651 cumulative IPC: 0.379557 (Simulation time: 0 hr 5 min 39 sec) 
Heartbeat CPU 0 instructions: 130000001 cycles: 113857810 heartbeat IPC: 0.385776 cumulative IPC: 0.381608 (Simulation time: 0 hr 6 min 24 sec) 
Heartbeat CPU 0 instructions: 140000002 cycles: 139966863 heartbeat IPC: 0.383009 cumulative IPC: 0.381957 (Simulation time: 0 hr 7 min 9 sec) 
Heartbeat CPU 0 instructions: 150000000 cycles: 166496303 heartbeat IPC: 0.37694 cumulative IPC: 0.380943 (Simulation time: 0 hr 7 min 56 sec) 
Heartbeat CPU 0 instructions: 160000001 cycles: 193281889 heartbeat IPC: 0.373335 cumulative IPC: 0.379653 (Simulation time: 0 hr 8 min 42 sec) 
Heartbeat CPU 0 instructions: 170000002 cycles: 219787075 heartbeat IPC: 0.377285 cumulative IPC: 0.379313 (Simulation time: 0 hr 9 min 28 sec) 
Heartbeat CPU 0 instructions: 180000000 cycles: 246321873 heartbeat IPC: 0.376864 cumulative IPC: 0.379005 (Simulation time: 0 hr 10 min 14 sec) 
Heartbeat CPU 0 instructions: 190000002 cycles: 272991394 heartbeat IPC: 0.37496 cumulative IPC: 0.378552 (Simulation time: 0 hr 11 min 1 sec) 
Heartbeat CPU 0 instructions: 200000002 cycles: 299542218 heartbeat IPC: 0.376636 cumulative IPC: 0.378359 (Simulation time: 0 hr 11 min 47 sec) 
Heartbeat CPU 0 instructions: 210000003 cycles: 326599802 heartbeat IPC: 0.369582 cumulative IPC: 0.377544 (Simulation time: 0 hr 12 min 33 sec) 
Heartbeat CPU 0 instructions: 220000000 cycles: 353498756 heartbeat IPC: 0.371762 cumulative IPC: 0.377055 (Simulation time: 0 hr 13 min 20 sec) 
Heartbeat CPU 0 instructions: 230000000 cycles: 380063513 heartbeat IPC: 0.376439 cumulative IPC: 0.377008 (Simulation time: 0 hr 14 min 6 sec) 
Heartbeat CPU 0 instructions: 240000001 cycles: 406794068 heartbeat IPC: 0.374104 cumulative IPC: 0.376799 (Simulation time: 0 hr 14 min 52 sec) 
Heartbeat CPU 0 instructions: 250000000 cycles: 432839080 heartbeat IPC: 0.383951 cumulative IPC: 0.377267 (Simulation time: 0 hr 15 min 38 sec) 
Heartbeat CPU 0 instructions: 260000002 cycles: 458992600 heartbeat IPC: 0.382358 cumulative IPC: 0.377582 (Simulation time: 0 hr 16 min 24 sec) 
Heartbeat CPU 0 instructions: 270000001 cycles: 485130806 heartbeat IPC: 0.382582 cumulative IPC: 0.377872 (Simulation time: 0 hr 17 min 9 sec) 
Heartbeat CPU 0 instructions: 280000002 cycles: 510870230 heartbeat IPC: 0.388509 cumulative IPC: 0.378448 (Simulation time: 0 hr 17 min 54 sec) 
Heartbeat CPU 0 instructions: 290000000 cycles: 536980450 heartbeat IPC: 0.382992 cumulative IPC: 0.378684 (Simulation time: 0 hr 18 min 40 sec) 
Heartbeat CPU 0 instructions: 300000003 cycles: 563402772 heartbeat IPC: 0.378468 cumulative IPC: 0.378673 (Simulation time: 0 hr 19 min 26 sec) 
Heartbeat CPU 0 instructions: 310000001 cycles: 589791149 heartbeat IPC: 0.378955 cumulative IPC: 0.378687 (Simulation time: 0 hr 20 min 12 sec) 
Heartbeat CPU 0 instructions: 320000001 cycles: 616048636 heartbeat IPC: 0.380844 cumulative IPC: 0.378784 (Simulation time: 0 hr 20 min 58 sec) 
Heartbeat CPU 0 instructions: 330000000 cycles: 642158405 heartbeat IPC: 0.382998 cumulative IPC: 0.378966 (Simulation time: 0 hr 21 min 44 sec) 
Heartbeat CPU 0 instructions: 340000002 cycles: 667794320 heartbeat IPC: 0.390078 cumulative IPC: 0.379416 (Simulation time: 0 hr 22 min 29 sec) 
Heartbeat CPU 0 instructions: 350000001 cycles: 693224767 heartbeat IPC: 0.393229 cumulative IPC: 0.37995 (Simulation time: 0 hr 23 min 14 sec) 
Heartbeat CPU 0 instructions: 360000001 cycles: 719308216 heartbeat IPC: 0.383385 cumulative IPC: 0.380081 (Simulation time: 0 hr 23 min 59 sec) 
Heartbeat CPU 0 instructions: 370000002 cycles: 744762911 heartbeat IPC: 0.392855 cumulative IPC: 0.380539 (Simulation time: 0 hr 24 min 44 sec) 
Heartbeat CPU 0 instructions: 380000002 cycles: 770456496 heartbeat IPC: 0.389202 cumulative IPC: 0.380842 (Simulation time: 0 hr 25 min 29 sec) 
Heartbeat CPU 0 instructions: 390000003 cycles: 796192857 heartbeat IPC: 0.388555 cumulative IPC: 0.381103 (Simulation time: 0 hr 26 min 14 sec) 
Heartbeat CPU 0 instructions: 400000001 cycles: 821502454 heartbeat IPC: 0.395107 cumulative IPC: 0.381553 (Simulation time: 0 hr 26 min 59 sec) 
Heartbeat CPU 0 instructions: 410000002 cycles: 847296917 heartbeat IPC: 0.38768 cumulative IPC: 0.381748 (Simulation time: 0 hr 27 min 44 sec) 
Heartbeat CPU 0 instructions: 420000002 cycles: 873114586 heartbeat IPC: 0.387332 cumulative IPC: 0.38192 (Simulation time: 0 hr 28 min 30 sec) 
Heartbeat CPU 0 instructions: 430000000 cycles: 899622122 heartbeat IPC: 0.377251 cumulative IPC: 0.381777 (Simulation time: 0 hr 29 min 18 sec) 
Heartbeat CPU 0 instructions: 440000000 cycles: 925796237 heartbeat IPC: 0.382057 cumulative IPC: 0.381785 (Simulation time: 0 hr 30 min 5 sec) 
Heartbeat CPU 0 instructions: 450000000 cycles: 951409228 heartbeat IPC: 0.390427 cumulative IPC: 0.382027 (Simulation time: 0 hr 30 min 51 sec) 
Heartbeat CPU 0 instructions: 460000002 cycles: 976200209 heartbeat IPC: 0.403373 cumulative IPC: 0.382589 (Simulation time: 0 hr 31 min 37 sec) 
Heartbeat CPU 0 instructions: 470000000 cycles: 1000935445 heartbeat IPC: 0.404281 cumulative IPC: 0.383145 (Simulation time: 0 hr 32 min 23 sec) 
Heartbeat CPU 0 instructions: 480000003 cycles: 1024966240 heartbeat IPC: 0.416133 cumulative IPC: 0.383946 (Simulation time: 0 hr 33 min 9 sec) 
Heartbeat CPU 0 instructions: 490000001 cycles: 1047794534 heartbeat IPC: 0.438053 cumulative IPC: 0.385166 (Simulation time: 0 hr 33 min 52 sec) 
Heartbeat CPU 0 instructions: 500000001 cycles: 1069639876 heartbeat IPC: 0.457763 cumulative IPC: 0.386699 (Simulation time: 0 hr 34 min 35 sec) 
Heartbeat CPU 0 instructions: 510000000 cycles: 1090849025 heartbeat IPC: 0.471495 cumulative IPC: 0.388402 (Simulation time: 0 hr 35 min 17 sec) 
Heartbeat CPU 0 instructions: 520000001 cycles: 1110894651 heartbeat IPC: 0.498862 cumulative IPC: 0.390461 (Simulation time: 0 hr 35 min 57 sec) 
Heartbeat CPU 0 instructions: 530000001 cycles: 1130001635 heartbeat IPC: 0.523369 cumulative IPC: 0.392781 (Simulation time: 0 hr 36 min 37 sec) 
Heartbeat CPU 0 instructions: 540000001 cycles: 1148607090 heartbeat IPC: 0.537477 cumulative IPC: 0.395199 (Simulation time: 0 hr 37 min 16 sec) 
Heartbeat CPU 0 instructions: 550000000 cycles: 1166259487 heartbeat IPC: 0.566495 cumulative IPC: 0.397872 (Simulation time: 0 hr 37 min 53 sec) 
Heartbeat CPU 0 instructions: 560000003 cycles: 1183876586 heartbeat IPC: 0.567631 cumulative IPC: 0.400476 (Simulation time: 0 hr 38 min 31 sec) 
Heartbeat CPU 0 instructions: 570000001 cycles: 1200494416 heartbeat IPC: 0.601763 cumulative IPC: 0.403346 (Simulation time: 0 hr 39 min 8 sec) 
Heartbeat CPU 0 instructions: 580000000 cycles: 1217127615 heartbeat IPC: 0.601207 cumulative IPC: 0.406131 (Simulation time: 0 hr 39 min 45 sec) 
Heartbeat CPU 0 instructions: 590000000 cycles: 1233095164 heartbeat IPC: 0.62627 cumulative IPC: 0.409066 (Simulation time: 0 hr 40 min 21 sec) 
Heartbeat CPU 0 instructions: 600000002 cycles: 1248740136 heartbeat IPC: 0.639183 cumulative IPC: 0.412032 (Simulation time: 0 hr 40 min 56 sec) 
Heartbeat CPU 0 instructions: 610000002 cycles: 1263786433 heartbeat IPC: 0.664615 cumulative IPC: 0.415126 (Simulation time: 0 hr 41 min 31 sec) 
Heartbeat CPU 0 instructions: 620000003 cycles: 1278940294 heartbeat IPC: 0.659898 cumulative IPC: 0.418108 (Simulation time: 0 hr 42 min 6 sec) 
Heartbeat CPU 0 instructions: 630000002 cycles: 1293921236 heartbeat IPC: 0.667515 cumulative IPC: 0.421077 (Simulation time: 0 hr 42 min 41 sec) 
Heartbeat CPU 0 instructions: 640000001 cycles: 1308670195 heartbeat IPC: 0.678014 cumulative IPC: 0.424053 (Simulation time: 0 hr 43 min 15 sec) 
Heartbeat CPU 0 instructions: 650000002 cycles: 1323259567 heartbeat IPC: 0.685431 cumulative IPC: 0.427013 (Simulation time: 0 hr 43 min 50 sec) 
Heartbeat CPU 0 instructions: 660000000 cycles: 1337457792 heartbeat IPC: 0.704313 cumulative IPC: 0.430037 (Simulation time: 0 hr 44 min 24 sec) 
Heartbeat CPU 0 instructions: 670000002 cycles: 1351800251 heartbeat IPC: 0.697231 cumulative IPC: 0.432947 (Simulation time: 0 hr 44 min 58 sec) 
Heartbeat CPU 0 instructions: 680000002 cycles: 1366035301 heartbeat IPC: 0.702491 cumulative IPC: 0.435831 (Simulation time: 0 hr 45 min 32 sec) 
Heartbeat CPU 0 instructions: 690000003 cycles: 1380284415 heartbeat IPC: 0.701798 cumulative IPC: 0.438648 (Simulation time: 0 hr 46 min 6 sec) 
Heartbeat CPU 0 instructions: 700000000 cycles: 1394519108 heartbeat IPC: 0.702509 cumulative IPC: 0.441411 (Simulation time: 0 hr 46 min 40 sec) 
Heartbeat CPU 0 instructions: 710000000 cycles: 1408688746 heartbeat IPC: 0.705734 cumulative IPC: 0.444138 (Simulation time: 0 hr 47 min 14 sec) 
Heartbeat CPU 0 instructions: 720000003 cycles: 1422667917 heartbeat IPC: 0.71535 cumulative IPC: 0.446871 (Simulation time: 0 hr 47 min 47 sec) 
Heartbeat CPU 0 instructions: 730000001 cycles: 1436669389 heartbeat IPC: 0.71421 cumulative IPC: 0.449542 (Simulation time: 0 hr 48 min 20 sec) 
Heartbeat CPU 0 instructions: 740000003 cycles: 1450647368 heartbeat IPC: 0.715411 cumulative IPC: 0.452168 (Simulation time: 0 hr 48 min 54 sec) 
Heartbeat CPU 0 instructions: 750000002 cycles: 1464545128 heartbeat IPC: 0.71954 cumulative IPC: 0.454767 (Simulation time: 0 hr 49 min 27 sec) 
Heartbeat CPU 0 instructions: 760000002 cycles: 1478444790 heartbeat IPC: 0.719442 cumulative IPC: 0.457317 (Simulation time: 0 hr 50 min 1 sec) 
Heartbeat CPU 0 instructions: 770000000 cycles: 1492405476 heartbeat IPC: 0.716297 cumulative IPC: 0.459798 (Simulation time: 0 hr 50 min 34 sec) 
Heartbeat CPU 0 instructions: 780000001 cycles: 1506172231 heartbeat IPC: 0.726388 cumulative IPC: 0.462293 (Simulation time: 0 hr 51 min 8 sec) 
Heartbeat CPU 0 instructions: 790000003 cycles: 1520173172 heartbeat IPC: 0.714238 cumulative IPC: 0.464668 (Simulation time: 0 hr 51 min 41 sec) 
Heartbeat CPU 0 instructions: 800000001 cycles: 1533893840 heartbeat IPC: 0.728827 cumulative IPC: 0.467087 (Simulation time: 0 hr 52 min 15 sec) 
Heartbeat CPU 0 instructions: 810000002 cycles: 1547787429 heartbeat IPC: 0.719756 cumulative IPC: 0.469408 (Simulation time: 0 hr 52 min 50 sec) 
Heartbeat CPU 0 instructions: 820000000 cycles: 1561724210 heartbeat IPC: 0.717526 cumulative IPC: 0.471673 (Simulation time: 0 hr 53 min 24 sec) 
Heartbeat CPU 0 instructions: 830000000 cycles: 1575518818 heartbeat IPC: 0.724921 cumulative IPC: 0.473941 (Simulation time: 0 hr 53 min 58 sec) 
Heartbeat CPU 0 instructions: 840000002 cycles: 1589480202 heartbeat IPC: 0.716262 cumulative IPC: 0.476118 (Simulation time: 0 hr 54 min 33 sec) 
Heartbeat CPU 0 instructions: 850000000 cycles: 1603248789 heartbeat IPC: 0.726291 cumulative IPC: 0.478315 (Simulation time: 0 hr 55 min 5 sec) 
Heartbeat CPU 0 instructions: 860000002 cycles: 1617224349 heartbeat IPC: 0.715535 cumulative IPC: 0.48041 (Simulation time: 0 hr 55 min 38 sec) 
Heartbeat CPU 0 instructions: 870000000 cycles: 1630941844 heartbeat IPC: 0.728996 cumulative IPC: 0.482547 (Simulation time: 0 hr 56 min 11 sec) 
Heartbeat CPU 0 instructions: 880000000 cycles: 1644849620 heartbeat IPC: 0.719022 cumulative IPC: 0.48459 (Simulation time: 0 hr 56 min 44 sec) 
Heartbeat CPU 0 instructions: 890000003 cycles: 1658588243 heartbeat IPC: 0.727875 cumulative IPC: 0.486649 (Simulation time: 0 hr 57 min 17 sec) 
Heartbeat CPU 0 instructions: 900000001 cycles: 1672585530 heartbeat IPC: 0.714424 cumulative IPC: 0.488597 (Simulation time: 0 hr 57 min 50 sec) 
Heartbeat CPU 0 instructions: 910000003 cycles: 1686352343 heartbeat IPC: 0.726385 cumulative IPC: 0.490579 (Simulation time: 0 hr 58 min 23 sec) 
Heartbeat CPU 0 instructions: 920000000 cycles: 1700244445 heartbeat IPC: 0.719833 cumulative IPC: 0.492492 (Simulation time: 0 hr 58 min 56 sec) 
Heartbeat CPU 0 instructions: 930000002 cycles: 1713969319 heartbeat IPC: 0.728604 cumulative IPC: 0.494422 (Simulation time: 0 hr 59 min 28 sec) 
Heartbeat CPU 0 instructions: 940000002 cycles: 1728765871 heartbeat IPC: 0.675833 cumulative IPC: 0.496007 (Simulation time: 1 hr 0 min 2 sec) 
Heartbeat CPU 0 instructions: 950000003 cycles: 1763768379 heartbeat IPC: 0.285694 cumulative IPC: 0.491749 (Simulation time: 1 hr 0 min 59 sec) 
Heartbeat CPU 0 instructions: 960000001 cycles: 1790712514 heartbeat IPC: 0.371138 cumulative IPC: 0.489897 (Simulation time: 1 hr 1 min 47 sec) 
Heartbeat CPU 0 instructions: 970000002 cycles: 1805401802 heartbeat IPC: 0.680768 cumulative IPC: 0.491481 (Simulation time: 1 hr 2 min 20 sec) 
Heartbeat CPU 0 instructions: 980000000 cycles: 1819252842 heartbeat IPC: 0.721967 cumulative IPC: 0.493271 (Simulation time: 1 hr 2 min 53 sec) 
Heartbeat CPU 0 instructions: 990000000 cycles: 1833304559 heartbeat IPC: 0.711657 cumulative IPC: 0.494978 (Simulation time: 1 hr 3 min 26 sec) 
Heartbeat CPU 0 instructions: 1000000003 cycles: 1847049947 heartbeat IPC: 0.727517 cumulative IPC: 0.496742 (Simulation time: 1 hr 3 min 59 sec) 
Heartbeat CPU 0 instructions: 1010000002 cycles: 1861007709 heartbeat IPC: 0.716447 cumulative IPC: 0.498421 (Simulation time: 1 hr 4 min 32 sec) 
Heartbeat CPU 0 instructions: 1020000003 cycles: 1874754092 heartbeat IPC: 0.727464 cumulative IPC: 0.500133 (Simulation time: 1 hr 5 min 4 sec) 
Heartbeat CPU 0 instructions: 1030000001 cycles: 1888705114 heartbeat IPC: 0.716793 cumulative IPC: 0.501764 (Simulation time: 1 hr 5 min 37 sec) 
Heartbeat CPU 0 instructions: 1040000003 cycles: 1902412829 heartbeat IPC: 0.729516 cumulative IPC: 0.503436 (Simulation time: 1 hr 6 min 10 sec) 
Heartbeat CPU 0 instructions: 1050000000 cycles: 1916316198 heartbeat IPC: 0.71925 cumulative IPC: 0.505031 (Simulation time: 1 hr 6 min 43 sec) 
Heartbeat CPU 0 instructions: 1060000001 cycles: 1930072980 heartbeat IPC: 0.726914 cumulative IPC: 0.506642 (Simulation time: 1 hr 7 min 16 sec) 
Heartbeat CPU 0 instructions: 1070000003 cycles: 1943978904 heartbeat IPC: 0.719118 cumulative IPC: 0.50819 (Simulation time: 1 hr 7 min 49 sec) 
Heartbeat CPU 0 instructions: 1080000000 cycles: 1957675018 heartbeat IPC: 0.730134 cumulative IPC: 0.509771 (Simulation time: 1 hr 8 min 21 sec) 
Heartbeat CPU 0 instructions: 1090000002 cycles: 1971551218 heartbeat IPC: 0.720659 cumulative IPC: 0.511282 (Simulation time: 1 hr 8 min 54 sec) 
Heartbeat CPU 0 instructions: 1100000000 cycles: 1985406208 heartbeat IPC: 0.721761 cumulative IPC: 0.512778 (Simulation time: 1 hr 9 min 27 sec) 
Finished CPU 0 instructions: 1000000000 cycles: 1950163416 cumulative IPC: 0.512778 (Simulation time: 1 hr 9 min 27 sec) 

ChampSim completed all CPUs

Region of Interest Statistics

CPU 0 cumulative IPC: 0.512778 instructions: 1000000000 cycles: 1950163416
L1D TOTAL     ACCESS:  250603608  HIT:  195374553  MISS:   55229055
L1D LOAD      ACCESS:   86097144  HIT:   77722115  MISS:    8375029
L1D RFO       ACCESS:  164506464  HIT:  117652438  MISS:   46854026
L1D PREFETCH  ACCESS:          0  HIT:          0  MISS:          0
L1D WRITEBACK ACCESS:          0  HIT:          0  MISS:          0
L1D PREFETCH  REQUESTED:          0  ISSUED:          0  USEFUL:          0  USELESS:          0
L1D AVERAGE MISS LATENCY: 328.811 cycles
L1I TOTAL     ACCESS:  154263236  HIT:  154263233  MISS:          3
L1I LOAD      ACCESS:  154263236  HIT:  154263233  MISS:          3
L1I RFO       ACCESS:          0  HIT:          0  MISS:          0
L1I PREFETCH  ACCESS:          0  HIT:          0  MISS:          0
L1I WRITEBACK ACCESS:          0  HIT:          0  MISS:          0
L1I PREFETCH  REQUESTED:          0  ISSUED:          0  USEFUL:          0  USELESS:          0
L1I AVERAGE MISS LATENCY: 361 cycles
L2C TOTAL     ACCESS:  102082886  HIT:   58916162  MISS:   43166724
L2C LOAD      ACCESS:    8375032  HIT:       5087  MISS:    8369945
L2C RFO       ACCESS:   46853825  HIT:   12064837  MISS:   34788988
L2C PREFETCH  ACCESS:          0  HIT:          0  MISS:          0
L2C WRITEBACK ACCESS:   46854029  HIT:   46846238  MISS:       7791
L2C PREFETCH  REQUESTED:          0  ISSUED:          0  USEFUL:          0  USELESS:          0
L2C AVERAGE MISS LATENCY: 403.209 cycles
LLC TOTAL     ACCESS:   77950461  HIT:   30478221  MISS:   47472240
LLC LOAD      ACCESS:    8369945  HIT:       5488  MISS:    8364457
LLC RFO       ACCESS:   34784459  HIT:    9640545  MISS:   25143914
LLC PREFETCH  ACCESS:          0  HIT:          0  MISS:          0
LLC WRITEBACK ACCESS:   34796057  HIT:   20832188  MISS:   13963869
LLC PREFETCH  REQUESTED:          0  ISSUED:          0  USEFUL:          0  USELESS:          0
LLC AVERAGE MISS LATENCY: 328.969 cycles
Major fault: 0 Minor fault: 304584

DRAM Statistics
 CHANNEL 0
 RQ ROW_BUFFER_HIT:    1787902  ROW_BUFFER_MISS:   31719012
 DBUS_CONGESTED:   32633983
 WQ ROW_BUFFER_HIT:    3875473  ROW_BUFFER_MISS:   21271379  FULL:       5340

 AVG_CONGESTED_CYCLE: 6

CPU 0 Branch Prediction Accuracy: 97.1481% MPKI: 0.40653 Average ROB Occupancy at Mispredict: 246.528

Branch types
NOT_BRANCH: 985745443 98.5745%
BRANCH_DIRECT_JUMP: 1582739 0.158274%
BRANCH_INDIRECT: 0 0%
BRANCH_CONDITIONAL: 12671818 1.26718%
BRANCH_DIRECT_CALL: 2 2e-07%
BRANCH_INDIRECT_CALL: 0 0%
BRANCH_RETURN: 2 2e-07%
BRANCH_OTHER: 0 0%

