
*** ChampSim Multicore Out-of-Order Simulator ***

Warmup Instructions: 100000000
Simulation Instructions: 1000000000
Number of CPUs: 1
LLC sets: 2048
LLC ways: 16
Off-chip DRAM Size: 4096 MB Channels: 1 Width: 64-bit Data Rate: 3200 MT/s

CPU 0 runs /scratch/user/kevin.weston/dpc3-traces/619.champsimtrace.xz
CPU 0 Bimodal branch predictor
Heartbeat CPU 0 instructions: 10000002 cycles: 3522023 heartbeat IPC: 2.83928 cumulative IPC: 2.83928 (Simulation time: 0 hr 0 min 26 sec) 
Heartbeat CPU 0 instructions: 20000003 cycles: 7041427 heartbeat IPC: 2.84139 cumulative IPC: 2.84033 (Simulation time: 0 hr 0 min 53 sec) 
Heartbeat CPU 0 instructions: 30000001 cycles: 10554618 heartbeat IPC: 2.84641 cumulative IPC: 2.84236 (Simulation time: 0 hr 1 min 20 sec) 
Heartbeat CPU 0 instructions: 40000000 cycles: 14080532 heartbeat IPC: 2.83614 cumulative IPC: 2.8408 (Simulation time: 0 hr 1 min 46 sec) 
Heartbeat CPU 0 instructions: 50000002 cycles: 17607325 heartbeat IPC: 2.83544 cumulative IPC: 2.83973 (Simulation time: 0 hr 2 min 13 sec) 
Heartbeat CPU 0 instructions: 60000002 cycles: 21142813 heartbeat IPC: 2.82846 cumulative IPC: 2.83784 (Simulation time: 0 hr 2 min 39 sec) 
Heartbeat CPU 0 instructions: 70000003 cycles: 24674991 heartbeat IPC: 2.83111 cumulative IPC: 2.83688 (Simulation time: 0 hr 3 min 6 sec) 
Heartbeat CPU 0 instructions: 80000000 cycles: 28196715 heartbeat IPC: 2.83952 cumulative IPC: 2.83721 (Simulation time: 0 hr 3 min 33 sec) 
Heartbeat CPU 0 instructions: 90000002 cycles: 31724248 heartbeat IPC: 2.83484 cumulative IPC: 2.83695 (Simulation time: 0 hr 3 min 59 sec) 
Heartbeat CPU 0 instructions: 100000000 cycles: 35244368 heartbeat IPC: 2.84081 cumulative IPC: 2.83733 (Simulation time: 0 hr 4 min 26 sec) 

Warmup complete CPU 0 instructions: 100000004 cycles: 35244369 (Simulation time: 0 hr 4 min 26 sec) 

Heartbeat CPU 0 instructions: 110000000 cycles: 60136047 heartbeat IPC: 0.401741 cumulative IPC: 0.401741 (Simulation time: 0 hr 5 min 11 sec) 
Heartbeat CPU 0 instructions: 120000001 cycles: 85275826 heartbeat IPC: 0.397776 cumulative IPC: 0.399748 (Simulation time: 0 hr 5 min 57 sec) 
Heartbeat CPU 0 instructions: 130000001 cycles: 109814931 heartbeat IPC: 0.407513 cumulative IPC: 0.402303 (Simulation time: 0 hr 6 min 41 sec) 
Heartbeat CPU 0 instructions: 140000002 cycles: 134546601 heartbeat IPC: 0.40434 cumulative IPC: 0.402811 (Simulation time: 0 hr 7 min 27 sec) 
Heartbeat CPU 0 instructions: 150000001 cycles: 159787046 heartbeat IPC: 0.396189 cumulative IPC: 0.401469 (Simulation time: 0 hr 8 min 12 sec) 
Heartbeat CPU 0 instructions: 160000001 cycles: 185201782 heartbeat IPC: 0.393473 cumulative IPC: 0.400114 (Simulation time: 0 hr 8 min 58 sec) 
Heartbeat CPU 0 instructions: 170000002 cycles: 210224628 heartbeat IPC: 0.399635 cumulative IPC: 0.400045 (Simulation time: 0 hr 9 min 43 sec) 
Heartbeat CPU 0 instructions: 180000000 cycles: 235445732 heartbeat IPC: 0.396493 cumulative IPC: 0.399598 (Simulation time: 0 hr 10 min 28 sec) 
Heartbeat CPU 0 instructions: 190000002 cycles: 260541649 heartbeat IPC: 0.398471 cumulative IPC: 0.399472 (Simulation time: 0 hr 11 min 14 sec) 
Heartbeat CPU 0 instructions: 200000002 cycles: 285585428 heartbeat IPC: 0.399301 cumulative IPC: 0.399455 (Simulation time: 0 hr 11 min 59 sec) 
Heartbeat CPU 0 instructions: 210000001 cycles: 311133152 heartbeat IPC: 0.391424 cumulative IPC: 0.398711 (Simulation time: 0 hr 12 min 45 sec) 
Heartbeat CPU 0 instructions: 220000000 cycles: 336641988 heartbeat IPC: 0.392021 cumulative IPC: 0.398145 (Simulation time: 0 hr 13 min 31 sec) 
Heartbeat CPU 0 instructions: 230000000 cycles: 361637858 heartbeat IPC: 0.400066 cumulative IPC: 0.398292 (Simulation time: 0 hr 14 min 16 sec) 
Heartbeat CPU 0 instructions: 240000001 cycles: 387201739 heartbeat IPC: 0.391177 cumulative IPC: 0.397775 (Simulation time: 0 hr 15 min 2 sec) 
Heartbeat CPU 0 instructions: 250000000 cycles: 411800389 heartbeat IPC: 0.406526 cumulative IPC: 0.398347 (Simulation time: 0 hr 15 min 47 sec) 
Heartbeat CPU 0 instructions: 260000002 cycles: 436698851 heartbeat IPC: 0.401631 cumulative IPC: 0.398551 (Simulation time: 0 hr 16 min 32 sec) 
Heartbeat CPU 0 instructions: 270000001 cycles: 461416739 heartbeat IPC: 0.404565 cumulative IPC: 0.3989 (Simulation time: 0 hr 17 min 17 sec) 
Heartbeat CPU 0 instructions: 280000002 cycles: 485723266 heartbeat IPC: 0.411412 cumulative IPC: 0.399575 (Simulation time: 0 hr 18 min 1 sec) 
Heartbeat CPU 0 instructions: 290000000 cycles: 510481842 heartbeat IPC: 0.4039 cumulative IPC: 0.3998 (Simulation time: 0 hr 18 min 46 sec) 
Heartbeat CPU 0 instructions: 300000003 cycles: 535570124 heartbeat IPC: 0.398593 cumulative IPC: 0.39974 (Simulation time: 0 hr 19 min 32 sec) 
Heartbeat CPU 0 instructions: 310000001 cycles: 560451273 heartbeat IPC: 0.401911 cumulative IPC: 0.399842 (Simulation time: 0 hr 20 min 17 sec) 
Heartbeat CPU 0 instructions: 320000001 cycles: 585426226 heartbeat IPC: 0.400401 cumulative IPC: 0.399868 (Simulation time: 0 hr 21 min 2 sec) 
Heartbeat CPU 0 instructions: 330000000 cycles: 610152476 heartbeat IPC: 0.404428 cumulative IPC: 0.400064 (Simulation time: 0 hr 21 min 47 sec) 
Heartbeat CPU 0 instructions: 340000002 cycles: 634479657 heartbeat IPC: 0.411063 cumulative IPC: 0.40051 (Simulation time: 0 hr 22 min 31 sec) 
Heartbeat CPU 0 instructions: 350000001 cycles: 658619612 heartbeat IPC: 0.414251 cumulative IPC: 0.401043 (Simulation time: 0 hr 23 min 16 sec) 
Heartbeat CPU 0 instructions: 360000001 cycles: 683241115 heartbeat IPC: 0.406149 cumulative IPC: 0.401237 (Simulation time: 0 hr 24 min 0 sec) 
Heartbeat CPU 0 instructions: 370000002 cycles: 707485245 heartbeat IPC: 0.412471 cumulative IPC: 0.401642 (Simulation time: 0 hr 24 min 45 sec) 
Heartbeat CPU 0 instructions: 380000002 cycles: 731937676 heartbeat IPC: 0.408957 cumulative IPC: 0.401899 (Simulation time: 0 hr 25 min 29 sec) 
Heartbeat CPU 0 instructions: 390000003 cycles: 756267098 heartbeat IPC: 0.411025 cumulative IPC: 0.402206 (Simulation time: 0 hr 26 min 14 sec) 
Heartbeat CPU 0 instructions: 400000001 cycles: 780286302 heartbeat IPC: 0.416333 cumulative IPC: 0.402662 (Simulation time: 0 hr 26 min 58 sec) 
Heartbeat CPU 0 instructions: 410000002 cycles: 804674320 heartbeat IPC: 0.410037 cumulative IPC: 0.402896 (Simulation time: 0 hr 27 min 43 sec) 
Heartbeat CPU 0 instructions: 420000002 cycles: 829363456 heartbeat IPC: 0.405036 cumulative IPC: 0.402962 (Simulation time: 0 hr 28 min 28 sec) 
Heartbeat CPU 0 instructions: 430000000 cycles: 854276169 heartbeat IPC: 0.401401 cumulative IPC: 0.402915 (Simulation time: 0 hr 29 min 13 sec) 
Heartbeat CPU 0 instructions: 440000000 cycles: 879245378 heartbeat IPC: 0.400493 cumulative IPC: 0.402843 (Simulation time: 0 hr 29 min 58 sec) 
Heartbeat CPU 0 instructions: 450000000 cycles: 903621441 heartbeat IPC: 0.410239 cumulative IPC: 0.403051 (Simulation time: 0 hr 30 min 43 sec) 
Heartbeat CPU 0 instructions: 460000000 cycles: 927013974 heartbeat IPC: 0.427487 cumulative IPC: 0.403692 (Simulation time: 0 hr 31 min 26 sec) 
Heartbeat CPU 0 instructions: 470000000 cycles: 950518961 heartbeat IPC: 0.425442 cumulative IPC: 0.40425 (Simulation time: 0 hr 32 min 10 sec) 
Heartbeat CPU 0 instructions: 480000000 cycles: 973389121 heartbeat IPC: 0.437251 cumulative IPC: 0.405055 (Simulation time: 0 hr 32 min 53 sec) 
Heartbeat CPU 0 instructions: 490000001 cycles: 995109787 heartbeat IPC: 0.460391 cumulative IPC: 0.406307 (Simulation time: 0 hr 33 min 35 sec) 
Heartbeat CPU 0 instructions: 500000000 cycles: 1015715203 heartbeat IPC: 0.485309 cumulative IPC: 0.407967 (Simulation time: 0 hr 34 min 16 sec) 
Heartbeat CPU 0 instructions: 510000000 cycles: 1035819016 heartbeat IPC: 0.497418 cumulative IPC: 0.409765 (Simulation time: 0 hr 34 min 56 sec) 
Heartbeat CPU 0 instructions: 520000001 cycles: 1054929848 heartbeat IPC: 0.523264 cumulative IPC: 0.411892 (Simulation time: 0 hr 35 min 35 sec) 
Heartbeat CPU 0 instructions: 530000001 cycles: 1073163988 heartbeat IPC: 0.548422 cumulative IPC: 0.41429 (Simulation time: 0 hr 36 min 13 sec) 
Heartbeat CPU 0 instructions: 540000001 cycles: 1091059526 heartbeat IPC: 0.558798 cumulative IPC: 0.41674 (Simulation time: 0 hr 36 min 51 sec) 
Heartbeat CPU 0 instructions: 550000000 cycles: 1107869835 heartbeat IPC: 0.594873 cumulative IPC: 0.419531 (Simulation time: 0 hr 37 min 28 sec) 
Heartbeat CPU 0 instructions: 560000002 cycles: 1124642033 heartbeat IPC: 0.596225 cumulative IPC: 0.422252 (Simulation time: 0 hr 38 min 4 sec) 
Heartbeat CPU 0 instructions: 570000001 cycles: 1140794908 heartbeat IPC: 0.619085 cumulative IPC: 0.425128 (Simulation time: 0 hr 38 min 40 sec) 
Heartbeat CPU 0 instructions: 580000000 cycles: 1156873082 heartbeat IPC: 0.621961 cumulative IPC: 0.427949 (Simulation time: 0 hr 39 min 16 sec) 
Heartbeat CPU 0 instructions: 590000000 cycles: 1172064583 heartbeat IPC: 0.658263 cumulative IPC: 0.431027 (Simulation time: 0 hr 39 min 51 sec) 
Heartbeat CPU 0 instructions: 600000002 cycles: 1187132626 heartbeat IPC: 0.663656 cumulative IPC: 0.43407 (Simulation time: 0 hr 40 min 26 sec) 
Heartbeat CPU 0 instructions: 610000002 cycles: 1201690623 heartbeat IPC: 0.686908 cumulative IPC: 0.437225 (Simulation time: 0 hr 41 min 0 sec) 
Heartbeat CPU 0 instructions: 620000003 cycles: 1216354562 heartbeat IPC: 0.681945 cumulative IPC: 0.440264 (Simulation time: 0 hr 41 min 35 sec) 
Heartbeat CPU 0 instructions: 630000002 cycles: 1230831332 heartbeat IPC: 0.690762 cumulative IPC: 0.443297 (Simulation time: 0 hr 42 min 9 sec) 
Heartbeat CPU 0 instructions: 640000001 cycles: 1245033895 heartbeat IPC: 0.704098 cumulative IPC: 0.446359 (Simulation time: 0 hr 42 min 43 sec) 
Heartbeat CPU 0 instructions: 650000002 cycles: 1259127088 heartbeat IPC: 0.709562 cumulative IPC: 0.449389 (Simulation time: 0 hr 43 min 17 sec) 
Heartbeat CPU 0 instructions: 660000000 cycles: 1272877239 heartbeat IPC: 0.727265 cumulative IPC: 0.452477 (Simulation time: 0 hr 43 min 50 sec) 
Heartbeat CPU 0 instructions: 670000002 cycles: 1286747558 heartbeat IPC: 0.720964 cumulative IPC: 0.455452 (Simulation time: 0 hr 44 min 24 sec) 
Heartbeat CPU 0 instructions: 680000002 cycles: 1300479016 heartbeat IPC: 0.728255 cumulative IPC: 0.458413 (Simulation time: 0 hr 44 min 58 sec) 
Heartbeat CPU 0 instructions: 690000003 cycles: 1314251792 heartbeat IPC: 0.72607 cumulative IPC: 0.461295 (Simulation time: 0 hr 45 min 31 sec) 
Heartbeat CPU 0 instructions: 700000000 cycles: 1327961439 heartbeat IPC: 0.729413 cumulative IPC: 0.464139 (Simulation time: 0 hr 46 min 5 sec) 
Heartbeat CPU 0 instructions: 710000003 cycles: 1341620166 heartbeat IPC: 0.732133 cumulative IPC: 0.466941 (Simulation time: 0 hr 46 min 38 sec) 
Heartbeat CPU 0 instructions: 720000003 cycles: 1354991893 heartbeat IPC: 0.747847 cumulative IPC: 0.469787 (Simulation time: 0 hr 47 min 11 sec) 
Heartbeat CPU 0 instructions: 730000001 cycles: 1368607623 heartbeat IPC: 0.734444 cumulative IPC: 0.472489 (Simulation time: 0 hr 47 min 45 sec) 
Heartbeat CPU 0 instructions: 740000003 cycles: 1381955354 heartbeat IPC: 0.749191 cumulative IPC: 0.475232 (Simulation time: 0 hr 48 min 18 sec) 
Heartbeat CPU 0 instructions: 750000002 cycles: 1395476762 heartbeat IPC: 0.739568 cumulative IPC: 0.47786 (Simulation time: 0 hr 48 min 51 sec) 
Heartbeat CPU 0 instructions: 760000002 cycles: 1408797895 heartbeat IPC: 0.750687 cumulative IPC: 0.480505 (Simulation time: 0 hr 49 min 25 sec) 
Heartbeat CPU 0 instructions: 770000000 cycles: 1422154692 heartbeat IPC: 0.748682 cumulative IPC: 0.483088 (Simulation time: 0 hr 49 min 58 sec) 
Heartbeat CPU 0 instructions: 780000001 cycles: 1435472187 heartbeat IPC: 0.750892 cumulative IPC: 0.485635 (Simulation time: 0 hr 50 min 31 sec) 
Heartbeat CPU 0 instructions: 790000003 cycles: 1448990174 heartbeat IPC: 0.739755 cumulative IPC: 0.488065 (Simulation time: 0 hr 51 min 4 sec) 
Heartbeat CPU 0 instructions: 800000001 cycles: 1462224926 heartbeat IPC: 0.755586 cumulative IPC: 0.490546 (Simulation time: 0 hr 51 min 37 sec) 
Heartbeat CPU 0 instructions: 810000002 cycles: 1475787109 heartbeat IPC: 0.737345 cumulative IPC: 0.49287 (Simulation time: 0 hr 52 min 10 sec) 
Heartbeat CPU 0 instructions: 820000000 cycles: 1489167762 heartbeat IPC: 0.747348 cumulative IPC: 0.495212 (Simulation time: 0 hr 52 min 43 sec) 
Heartbeat CPU 0 instructions: 830000000 cycles: 1502332844 heartbeat IPC: 0.759585 cumulative IPC: 0.497584 (Simulation time: 0 hr 53 min 17 sec) 
Heartbeat CPU 0 instructions: 840000002 cycles: 1515808721 heartbeat IPC: 0.742067 cumulative IPC: 0.499809 (Simulation time: 0 hr 53 min 50 sec) 
Heartbeat CPU 0 instructions: 850000000 cycles: 1529091115 heartbeat IPC: 0.752876 cumulative IPC: 0.50206 (Simulation time: 0 hr 54 min 23 sec) 
Heartbeat CPU 0 instructions: 860000002 cycles: 1542625496 heartbeat IPC: 0.738859 cumulative IPC: 0.504186 (Simulation time: 0 hr 54 min 56 sec) 
Heartbeat CPU 0 instructions: 870000000 cycles: 1555923602 heartbeat IPC: 0.751987 cumulative IPC: 0.506353 (Simulation time: 0 hr 55 min 29 sec) 
Heartbeat CPU 0 instructions: 880000000 cycles: 1569494943 heartbeat IPC: 0.736847 cumulative IPC: 0.508392 (Simulation time: 0 hr 56 min 3 sec) 
Heartbeat CPU 0 instructions: 890000003 cycles: 1582659614 heartbeat IPC: 0.759609 cumulative IPC: 0.510529 (Simulation time: 0 hr 56 min 36 sec) 
Heartbeat CPU 0 instructions: 900000001 cycles: 1596178547 heartbeat IPC: 0.739703 cumulative IPC: 0.512514 (Simulation time: 0 hr 57 min 9 sec) 
Heartbeat CPU 0 instructions: 910000003 cycles: 1609435634 heartbeat IPC: 0.754314 cumulative IPC: 0.51455 (Simulation time: 0 hr 57 min 42 sec) 
Heartbeat CPU 0 instructions: 920000000 cycles: 1622818974 heartbeat IPC: 0.747197 cumulative IPC: 0.516511 (Simulation time: 0 hr 58 min 14 sec) 
Heartbeat CPU 0 instructions: 930000002 cycles: 1636119780 heartbeat IPC: 0.751834 cumulative IPC: 0.518466 (Simulation time: 0 hr 58 min 46 sec) 
Heartbeat CPU 0 instructions: 940000002 cycles: 1650316106 heartbeat IPC: 0.704408 cumulative IPC: 0.520101 (Simulation time: 0 hr 59 min 19 sec) 
Heartbeat CPU 0 instructions: 950000003 cycles: 1683336122 heartbeat IPC: 0.302847 cumulative IPC: 0.515748 (Simulation time: 1 hr 0 min 12 sec) 
Heartbeat CPU 0 instructions: 960000001 cycles: 1708831136 heartbeat IPC: 0.392233 cumulative IPC: 0.513866 (Simulation time: 1 hr 0 min 58 sec) 
Heartbeat CPU 0 instructions: 970000002 cycles: 1722691137 heartbeat IPC: 0.721501 cumulative IPC: 0.515572 (Simulation time: 1 hr 1 min 31 sec) 
Heartbeat CPU 0 instructions: 980000000 cycles: 1735969307 heartbeat IPC: 0.753116 cumulative IPC: 0.517426 (Simulation time: 1 hr 2 min 2 sec) 
Heartbeat CPU 0 instructions: 990000000 cycles: 1749481547 heartbeat IPC: 0.74007 cumulative IPC: 0.519181 (Simulation time: 1 hr 2 min 34 sec) 
Heartbeat CPU 0 instructions: 1000000003 cycles: 1762690395 heartbeat IPC: 0.757069 cumulative IPC: 0.521 (Simulation time: 1 hr 3 min 6 sec) 
Heartbeat CPU 0 instructions: 1010000002 cycles: 1776103560 heartbeat IPC: 0.745536 cumulative IPC: 0.52273 (Simulation time: 1 hr 3 min 38 sec) 
Heartbeat CPU 0 instructions: 1020000003 cycles: 1789370203 heartbeat IPC: 0.75377 cumulative IPC: 0.524478 (Simulation time: 1 hr 4 min 10 sec) 
Heartbeat CPU 0 instructions: 1030000001 cycles: 1802903988 heartbeat IPC: 0.738891 cumulative IPC: 0.526119 (Simulation time: 1 hr 4 min 43 sec) 
Heartbeat CPU 0 instructions: 1040000003 cycles: 1816175781 heartbeat IPC: 0.753478 cumulative IPC: 0.527814 (Simulation time: 1 hr 5 min 15 sec) 
Heartbeat CPU 0 instructions: 1050000000 cycles: 1829699387 heartbeat IPC: 0.739448 cumulative IPC: 0.529409 (Simulation time: 1 hr 5 min 47 sec) 
Heartbeat CPU 0 instructions: 1060000001 cycles: 1842871669 heartbeat IPC: 0.75917 cumulative IPC: 0.531083 (Simulation time: 1 hr 6 min 19 sec) 
Heartbeat CPU 0 instructions: 1070000003 cycles: 1856216969 heartbeat IPC: 0.749328 cumulative IPC: 0.532682 (Simulation time: 1 hr 6 min 51 sec) 
Heartbeat CPU 0 instructions: 1080000000 cycles: 1869466997 heartbeat IPC: 0.754715 cumulative IPC: 0.534286 (Simulation time: 1 hr 7 min 23 sec) 
Heartbeat CPU 0 instructions: 1090000002 cycles: 1882960698 heartbeat IPC: 0.741087 cumulative IPC: 0.535797 (Simulation time: 1 hr 7 min 55 sec) 
Heartbeat CPU 0 instructions: 1100000000 cycles: 1896346386 heartbeat IPC: 0.747066 cumulative IPC: 0.537316 (Simulation time: 1 hr 8 min 27 sec) 
Finished CPU 0 instructions: 1000000000 cycles: 1861102266 cumulative IPC: 0.537316 (Simulation time: 1 hr 8 min 27 sec) 

ChampSim completed all CPUs

Region of Interest Statistics

CPU 0 cumulative IPC: 0.537316 instructions: 1000000000 cycles: 1861102266
L1D TOTAL     ACCESS:  250578555  HIT:  195349484  MISS:   55229071
L1D LOAD      ACCESS:   86080737  HIT:   77705660  MISS:    8375077
L1D RFO       ACCESS:  164497818  HIT:  117643824  MISS:   46853994
L1D PREFETCH  ACCESS:          0  HIT:          0  MISS:          0
L1D WRITEBACK ACCESS:          0  HIT:          0  MISS:          0
L1D PREFETCH  REQUESTED:          0  ISSUED:          0  USEFUL:          0  USELESS:          0
L1D AVERAGE MISS LATENCY: 307.959 cycles
L1I TOTAL     ACCESS:  154256424  HIT:  154256421  MISS:          3
L1I LOAD      ACCESS:  154256424  HIT:  154256421  MISS:          3
L1I RFO       ACCESS:          0  HIT:          0  MISS:          0
L1I PREFETCH  ACCESS:          0  HIT:          0  MISS:          0
L1I WRITEBACK ACCESS:          0  HIT:          0  MISS:          0
L1I PREFETCH  REQUESTED:          0  ISSUED:          0  USEFUL:          0  USELESS:          0
L1I AVERAGE MISS LATENCY: 376.333 cycles
L2C TOTAL     ACCESS:  102082866  HIT:   58284408  MISS:   43798458
L2C LOAD      ACCESS:    8375080  HIT:       5199  MISS:    8369881
L2C RFO       ACCESS:   46853789  HIT:   11433303  MISS:   35420486
L2C PREFETCH  ACCESS:          0  HIT:          0  MISS:          0
L2C WRITEBACK ACCESS:   46853997  HIT:   46845906  MISS:       8091
L2C PREFETCH  REQUESTED:          0  ISSUED:          0  USEFUL:          0  USELESS:          0
L2C AVERAGE MISS LATENCY: 371.108 cycles
LLC TOTAL     ACCESS:   79215101  HIT:   45753257  MISS:   33461844
LLC LOAD      ACCESS:    8369881  HIT:       5153  MISS:    8364728
LLC RFO       ACCESS:   35417426  HIT:   10323080  MISS:   25094346
LLC PREFETCH  ACCESS:          0  HIT:          0  MISS:          0
LLC WRITEBACK ACCESS:   35427794  HIT:   35425024  MISS:       2770
LLC PREFETCH  REQUESTED:          0  ISSUED:          0  USEFUL:          0  USELESS:          0
LLC AVERAGE MISS LATENCY: 431.557 cycles
Major fault: 0 Minor fault: 304584

DRAM Statistics
 CHANNEL 0
 RQ ROW_BUFFER_HIT:    1690369  ROW_BUFFER_MISS:   31768705
 DBUS_CONGESTED:   32973182
 WQ ROW_BUFFER_HIT:    7457473  ROW_BUFFER_MISS:   17638996  FULL:          0

 AVG_CONGESTED_CYCLE: 6

CPU 0 Branch Prediction Accuracy: 97.1481% MPKI: 0.40653 Average ROB Occupancy at Mispredict: 246.335

Branch types
NOT_BRANCH: 985745443 98.5745%
BRANCH_DIRECT_JUMP: 1582739 0.158274%
BRANCH_INDIRECT: 0 0%
BRANCH_CONDITIONAL: 12671818 1.26718%
BRANCH_DIRECT_CALL: 2 2e-07%
BRANCH_INDIRECT_CALL: 0 0%
BRANCH_RETURN: 2 2e-07%
BRANCH_OTHER: 0 0%

