
*** ChampSim Multicore Out-of-Order Simulator ***

Warmup Instructions: 100000000
Simulation Instructions: 1000000000
Number of CPUs: 1
LLC sets: 2048
LLC ways: 16
Off-chip DRAM Size: 4096 MB Channels: 1 Width: 64-bit Data Rate: 3200 MT/s

CPU 0 runs /scratch/user/kevin.weston/dpc3-traces/620.champsimtrace.xz
CPU 0 Bimodal branch predictor
Per-line RRPV Initialized
PRRIP State Initialized
Assign SAMPLER_SET[0]: 454  LLC: 2048
SAMPLER_SET[0]: 454
Assign SAMPLER_SET[1]: 1662  LLC: 2048
SAMPLER_SET[1]: 1662
Assign SAMPLER_SET[2]: 1921  LLC: 2048
SAMPLER_SET[2]: 1921
Assign SAMPLER_SET[3]: 1131  LLC: 2048
SAMPLER_SET[3]: 1131
Assign SAMPLER_SET[4]: 331  LLC: 2048
SAMPLER_SET[4]: 331
Assign SAMPLER_SET[5]: 1531  LLC: 2048
SAMPLER_SET[5]: 1531
Assign SAMPLER_SET[6]: 482  LLC: 2048
SAMPLER_SET[6]: 482
Assign SAMPLER_SET[7]: 1275  LLC: 2048
SAMPLER_SET[7]: 1275
Assign SAMPLER_SET[8]: 1876  LLC: 2048
SAMPLER_SET[8]: 1876
Assign SAMPLER_SET[9]: 2038  LLC: 2048
SAMPLER_SET[9]: 2038
Assign SAMPLER_SET[10]: 701  LLC: 2048
SAMPLER_SET[10]: 701
Assign SAMPLER_SET[11]: 479  LLC: 2048
SAMPLER_SET[11]: 479
Assign SAMPLER_SET[12]: 892  LLC: 2048
SAMPLER_SET[12]: 892
Assign SAMPLER_SET[13]: 1820  LLC: 2048
SAMPLER_SET[13]: 1820
Assign SAMPLER_SET[14]: 1505  LLC: 2048
SAMPLER_SET[14]: 1505
Assign SAMPLER_SET[15]: 1159  LLC: 2048
SAMPLER_SET[15]: 1159
Assign SAMPLER_SET[16]: 513  LLC: 2048
SAMPLER_SET[16]: 513
Assign SAMPLER_SET[17]: 703  LLC: 2048
SAMPLER_SET[17]: 703
Assign SAMPLER_SET[18]: 561  LLC: 2048
SAMPLER_SET[18]: 561
Assign SAMPLER_SET[19]: 990  LLC: 2048
SAMPLER_SET[19]: 990
Assign SAMPLER_SET[20]: 342  LLC: 2048
SAMPLER_SET[20]: 342
Assign SAMPLER_SET[21]: 882  LLC: 2048
SAMPLER_SET[21]: 882
Assign SAMPLER_SET[22]: 15  LLC: 2048
SAMPLER_SET[22]: 15
Assign SAMPLER_SET[23]: 71  LLC: 2048
SAMPLER_SET[23]: 71
Assign SAMPLER_SET[24]: 1127  LLC: 2048
SAMPLER_SET[24]: 1127
Assign SAMPLER_SET[25]: 1382  LLC: 2048
SAMPLER_SET[25]: 1382
Assign SAMPLER_SET[26]: 647  LLC: 2048
SAMPLER_SET[26]: 647
Assign SAMPLER_SET[27]: 857  LLC: 2048
SAMPLER_SET[27]: 857
Assign SAMPLER_SET[28]: 1450  LLC: 2048
SAMPLER_SET[28]: 1450
Assign SAMPLER_SET[29]: 1160  LLC: 2048
SAMPLER_SET[29]: 1160
Assign SAMPLER_SET[30]: 1852  LLC: 2048
SAMPLER_SET[30]: 1852
Assign SAMPLER_SET[31]: 1881  LLC: 2048
SAMPLER_SET[31]: 1881
Assign SAMPLER_SET[32]: 1770  LLC: 2048
SAMPLER_SET[32]: 1770
Assign SAMPLER_SET[33]: 1622  LLC: 2048
SAMPLER_SET[33]: 1622
Assign SAMPLER_SET[34]: 275  LLC: 2048
SAMPLER_SET[34]: 275
Assign SAMPLER_SET[35]: 635  LLC: 2048
SAMPLER_SET[35]: 635
Assign SAMPLER_SET[36]: 466  LLC: 2048
SAMPLER_SET[36]: 466
Assign SAMPLER_SET[37]: 1413  LLC: 2048
SAMPLER_SET[37]: 1413
Assign SAMPLER_SET[38]: 417  LLC: 2048
SAMPLER_SET[38]: 417
Assign SAMPLER_SET[39]: 472  LLC: 2048
SAMPLER_SET[39]: 472
Assign SAMPLER_SET[40]: 1340  LLC: 2048
SAMPLER_SET[40]: 1340
Assign SAMPLER_SET[41]: 852  LLC: 2048
SAMPLER_SET[41]: 852
Assign SAMPLER_SET[42]: 1365  LLC: 2048
SAMPLER_SET[42]: 1365
Assign SAMPLER_SET[43]: 47  LLC: 2048
SAMPLER_SET[43]: 47
Assign SAMPLER_SET[44]: 823  LLC: 2048
SAMPLER_SET[44]: 823
Assign SAMPLER_SET[45]: 686  LLC: 2048
SAMPLER_SET[45]: 686
Assign SAMPLER_SET[46]: 1637  LLC: 2048
SAMPLER_SET[46]: 1637
Assign SAMPLER_SET[47]: 1115  LLC: 2048
SAMPLER_SET[47]: 1115
Assign SAMPLER_SET[48]: 986  LLC: 2048
SAMPLER_SET[48]: 986
Assign SAMPLER_SET[49]: 258  LLC: 2048
SAMPLER_SET[49]: 258
Assign SAMPLER_SET[50]: 633  LLC: 2048
SAMPLER_SET[50]: 633
Assign SAMPLER_SET[51]: 920  LLC: 2048
SAMPLER_SET[51]: 920
Assign SAMPLER_SET[52]: 204  LLC: 2048
SAMPLER_SET[52]: 204
Assign SAMPLER_SET[53]: 227  LLC: 2048
SAMPLER_SET[53]: 227
Assign SAMPLER_SET[54]: 1818  LLC: 2048
SAMPLER_SET[54]: 1818
Assign SAMPLER_SET[55]: 886  LLC: 2048
SAMPLER_SET[55]: 886
Assign SAMPLER_SET[56]: 1422  LLC: 2048
SAMPLER_SET[56]: 1422
Assign SAMPLER_SET[57]: 607  LLC: 2048
SAMPLER_SET[57]: 607
Assign SAMPLER_SET[58]: 217  LLC: 2048
SAMPLER_SET[58]: 217
Assign SAMPLER_SET[59]: 1945  LLC: 2048
SAMPLER_SET[59]: 1945
Assign SAMPLER_SET[60]: 143  LLC: 2048
SAMPLER_SET[60]: 143
Assign SAMPLER_SET[61]: 1311  LLC: 2048
SAMPLER_SET[61]: 1311
Assign SAMPLER_SET[62]: 319  LLC: 2048
SAMPLER_SET[62]: 319
Assign SAMPLER_SET[63]: 1846  LLC: 2048
SAMPLER_SET[63]: 1846
Heartbeat CPU 0 instructions: 10000001 cycles: 5584621 heartbeat IPC: 1.79063 cumulative IPC: 1.79063 (Simulation time: 0 hr 0 min 28 sec) 
Heartbeat CPU 0 instructions: 20000000 cycles: 11169264 heartbeat IPC: 1.79062 cumulative IPC: 1.79063 (Simulation time: 0 hr 0 min 55 sec) 
Heartbeat CPU 0 instructions: 30000002 cycles: 16746275 heartbeat IPC: 1.79308 cumulative IPC: 1.79144 (Simulation time: 0 hr 1 min 23 sec) 
Heartbeat CPU 0 instructions: 40000000 cycles: 22339121 heartbeat IPC: 1.788 cumulative IPC: 1.79058 (Simulation time: 0 hr 1 min 51 sec) 
Heartbeat CPU 0 instructions: 50000000 cycles: 27924607 heartbeat IPC: 1.79035 cumulative IPC: 1.79054 (Simulation time: 0 hr 2 min 18 sec) 
Heartbeat CPU 0 instructions: 60000001 cycles: 33522910 heartbeat IPC: 1.78626 cumulative IPC: 1.78982 (Simulation time: 0 hr 2 min 46 sec) 
Heartbeat CPU 0 instructions: 70000001 cycles: 39102396 heartbeat IPC: 1.79228 cumulative IPC: 1.79017 (Simulation time: 0 hr 3 min 14 sec) 
Heartbeat CPU 0 instructions: 80000001 cycles: 44681420 heartbeat IPC: 1.79243 cumulative IPC: 1.79045 (Simulation time: 0 hr 3 min 41 sec) 
Heartbeat CPU 0 instructions: 90000001 cycles: 50268949 heartbeat IPC: 1.7897 cumulative IPC: 1.79037 (Simulation time: 0 hr 4 min 9 sec) 
Heartbeat CPU 0 instructions: 100000003 cycles: 55858964 heartbeat IPC: 1.7889 cumulative IPC: 1.79022 (Simulation time: 0 hr 4 min 36 sec) 

Warmup complete CPU 0 instructions: 100000003 cycles: 55858964 (Simulation time: 0 hr 4 min 36 sec) 

Heartbeat CPU 0 instructions: 110000000 cycles: 87035113 heartbeat IPC: 0.320758 cumulative IPC: 0.320758 (Simulation time: 0 hr 5 min 5 sec) 
Heartbeat CPU 0 instructions: 120000000 cycles: 118058604 heartbeat IPC: 0.322336 cumulative IPC: 0.321545 (Simulation time: 0 hr 5 min 34 sec) 
Heartbeat CPU 0 instructions: 130000000 cycles: 149365435 heartbeat IPC: 0.319419 cumulative IPC: 0.320833 (Simulation time: 0 hr 6 min 2 sec) 
Heartbeat CPU 0 instructions: 140000001 cycles: 180503283 heartbeat IPC: 0.321153 cumulative IPC: 0.320913 (Simulation time: 0 hr 6 min 31 sec) 
Heartbeat CPU 0 instructions: 150000002 cycles: 211757105 heartbeat IPC: 0.319961 cumulative IPC: 0.320722 (Simulation time: 0 hr 6 min 59 sec) 
Heartbeat CPU 0 instructions: 160000000 cycles: 243402418 heartbeat IPC: 0.316002 cumulative IPC: 0.319926 (Simulation time: 0 hr 7 min 28 sec) 
Heartbeat CPU 0 instructions: 170000000 cycles: 274350995 heartbeat IPC: 0.323117 cumulative IPC: 0.320378 (Simulation time: 0 hr 7 min 57 sec) 
Heartbeat CPU 0 instructions: 180000000 cycles: 305615957 heartbeat IPC: 0.319847 cumulative IPC: 0.320311 (Simulation time: 0 hr 8 min 26 sec) 
Heartbeat CPU 0 instructions: 190000003 cycles: 336816379 heartbeat IPC: 0.320509 cumulative IPC: 0.320333 (Simulation time: 0 hr 8 min 54 sec) 
Heartbeat CPU 0 instructions: 200000000 cycles: 367669713 heartbeat IPC: 0.324114 cumulative IPC: 0.320707 (Simulation time: 0 hr 9 min 23 sec) 
Heartbeat CPU 0 instructions: 210000002 cycles: 398677012 heartbeat IPC: 0.322505 cumulative IPC: 0.32087 (Simulation time: 0 hr 9 min 52 sec) 
Heartbeat CPU 0 instructions: 220000000 cycles: 429759826 heartbeat IPC: 0.321721 cumulative IPC: 0.320941 (Simulation time: 0 hr 10 min 20 sec) 
Heartbeat CPU 0 instructions: 230000002 cycles: 460496915 heartbeat IPC: 0.32534 cumulative IPC: 0.321275 (Simulation time: 0 hr 10 min 49 sec) 
Heartbeat CPU 0 instructions: 240000001 cycles: 491754324 heartbeat IPC: 0.319924 cumulative IPC: 0.321178 (Simulation time: 0 hr 11 min 17 sec) 
Heartbeat CPU 0 instructions: 250000000 cycles: 522762496 heartbeat IPC: 0.322496 cumulative IPC: 0.321265 (Simulation time: 0 hr 11 min 46 sec) 
Heartbeat CPU 0 instructions: 260000000 cycles: 553733777 heartbeat IPC: 0.32288 cumulative IPC: 0.321366 (Simulation time: 0 hr 12 min 14 sec) 
Heartbeat CPU 0 instructions: 270000002 cycles: 584997078 heartbeat IPC: 0.319864 cumulative IPC: 0.321277 (Simulation time: 0 hr 12 min 43 sec) 
Heartbeat CPU 0 instructions: 280000001 cycles: 616477104 heartbeat IPC: 0.317662 cumulative IPC: 0.321074 (Simulation time: 0 hr 13 min 12 sec) 
Heartbeat CPU 0 instructions: 290000000 cycles: 648000428 heartbeat IPC: 0.317225 cumulative IPC: 0.320869 (Simulation time: 0 hr 13 min 40 sec) 
Heartbeat CPU 0 instructions: 300000000 cycles: 679208843 heartbeat IPC: 0.320426 cumulative IPC: 0.320847 (Simulation time: 0 hr 14 min 9 sec) 
Heartbeat CPU 0 instructions: 310000000 cycles: 709860003 heartbeat IPC: 0.326252 cumulative IPC: 0.3211 (Simulation time: 0 hr 14 min 37 sec) 
Heartbeat CPU 0 instructions: 320000002 cycles: 741071225 heartbeat IPC: 0.320398 cumulative IPC: 0.321068 (Simulation time: 0 hr 15 min 5 sec) 
Heartbeat CPU 0 instructions: 330000000 cycles: 772396122 heartbeat IPC: 0.319235 cumulative IPC: 0.320988 (Simulation time: 0 hr 15 min 34 sec) 
Heartbeat CPU 0 instructions: 340000001 cycles: 803900675 heartbeat IPC: 0.317414 cumulative IPC: 0.320838 (Simulation time: 0 hr 16 min 3 sec) 
Heartbeat CPU 0 instructions: 350000000 cycles: 835160975 heartbeat IPC: 0.319895 cumulative IPC: 0.3208 (Simulation time: 0 hr 16 min 31 sec) 
Heartbeat CPU 0 instructions: 360000003 cycles: 866434423 heartbeat IPC: 0.31976 cumulative IPC: 0.32076 (Simulation time: 0 hr 17 min 0 sec) 
Heartbeat CPU 0 instructions: 370000000 cycles: 897387458 heartbeat IPC: 0.32307 cumulative IPC: 0.320845 (Simulation time: 0 hr 17 min 28 sec) 
Heartbeat CPU 0 instructions: 380000003 cycles: 928381742 heartbeat IPC: 0.32264 cumulative IPC: 0.320909 (Simulation time: 0 hr 17 min 57 sec) 
Heartbeat CPU 0 instructions: 390000003 cycles: 958962142 heartbeat IPC: 0.327007 cumulative IPC: 0.321115 (Simulation time: 0 hr 18 min 25 sec) 
Heartbeat CPU 0 instructions: 400000000 cycles: 990363421 heartbeat IPC: 0.318458 cumulative IPC: 0.321026 (Simulation time: 0 hr 18 min 54 sec) 
Heartbeat CPU 0 instructions: 410000001 cycles: 1021626797 heartbeat IPC: 0.319863 cumulative IPC: 0.320988 (Simulation time: 0 hr 19 min 22 sec) 
Heartbeat CPU 0 instructions: 420000000 cycles: 1052647533 heartbeat IPC: 0.322365 cumulative IPC: 0.321031 (Simulation time: 0 hr 19 min 51 sec) 
Heartbeat CPU 0 instructions: 430000000 cycles: 1084112063 heartbeat IPC: 0.317818 cumulative IPC: 0.320933 (Simulation time: 0 hr 20 min 20 sec) 
Heartbeat CPU 0 instructions: 440000000 cycles: 1114738345 heartbeat IPC: 0.326517 cumulative IPC: 0.321094 (Simulation time: 0 hr 20 min 48 sec) 
Heartbeat CPU 0 instructions: 450000001 cycles: 1145939517 heartbeat IPC: 0.320501 cumulative IPC: 0.321077 (Simulation time: 0 hr 21 min 17 sec) 
Heartbeat CPU 0 instructions: 460000002 cycles: 1176264175 heartbeat IPC: 0.329765 cumulative IPC: 0.321312 (Simulation time: 0 hr 21 min 46 sec) 
Heartbeat CPU 0 instructions: 470000002 cycles: 1207276422 heartbeat IPC: 0.322453 cumulative IPC: 0.321343 (Simulation time: 0 hr 22 min 15 sec) 
Heartbeat CPU 0 instructions: 480000000 cycles: 1238448292 heartbeat IPC: 0.320802 cumulative IPC: 0.321329 (Simulation time: 0 hr 22 min 44 sec) 
Heartbeat CPU 0 instructions: 490000000 cycles: 1269299522 heartbeat IPC: 0.324136 cumulative IPC: 0.3214 (Simulation time: 0 hr 23 min 12 sec) 
Heartbeat CPU 0 instructions: 500000000 cycles: 1299824749 heartbeat IPC: 0.327598 cumulative IPC: 0.321552 (Simulation time: 0 hr 23 min 41 sec) 
Heartbeat CPU 0 instructions: 510000003 cycles: 1330746783 heartbeat IPC: 0.323394 cumulative IPC: 0.321597 (Simulation time: 0 hr 24 min 10 sec) 
Heartbeat CPU 0 instructions: 520000003 cycles: 1361362230 heartbeat IPC: 0.326632 cumulative IPC: 0.321715 (Simulation time: 0 hr 24 min 38 sec) 
Heartbeat CPU 0 instructions: 530000001 cycles: 1392569834 heartbeat IPC: 0.320435 cumulative IPC: 0.321685 (Simulation time: 0 hr 25 min 7 sec) 
Heartbeat CPU 0 instructions: 540000001 cycles: 1423086091 heartbeat IPC: 0.327694 cumulative IPC: 0.321819 (Simulation time: 0 hr 25 min 36 sec) 
Heartbeat CPU 0 instructions: 550000000 cycles: 1454340458 heartbeat IPC: 0.319955 cumulative IPC: 0.321778 (Simulation time: 0 hr 26 min 4 sec) 
Heartbeat CPU 0 instructions: 560000000 cycles: 1485755997 heartbeat IPC: 0.318314 cumulative IPC: 0.321701 (Simulation time: 0 hr 26 min 33 sec) 
Heartbeat CPU 0 instructions: 570000002 cycles: 1516454013 heartbeat IPC: 0.325754 cumulative IPC: 0.321787 (Simulation time: 0 hr 27 min 2 sec) 
Heartbeat CPU 0 instructions: 580000000 cycles: 1547086592 heartbeat IPC: 0.32645 cumulative IPC: 0.321882 (Simulation time: 0 hr 27 min 30 sec) 
Heartbeat CPU 0 instructions: 590000002 cycles: 1578260309 heartbeat IPC: 0.320783 cumulative IPC: 0.32186 (Simulation time: 0 hr 27 min 59 sec) 
Heartbeat CPU 0 instructions: 600000000 cycles: 1609254995 heartbeat IPC: 0.322636 cumulative IPC: 0.321875 (Simulation time: 0 hr 28 min 27 sec) 
Heartbeat CPU 0 instructions: 610000000 cycles: 1640206912 heartbeat IPC: 0.323082 cumulative IPC: 0.321899 (Simulation time: 0 hr 28 min 56 sec) 
Heartbeat CPU 0 instructions: 620000000 cycles: 1672023029 heartbeat IPC: 0.314306 cumulative IPC: 0.32175 (Simulation time: 0 hr 29 min 25 sec) 
Heartbeat CPU 0 instructions: 630000001 cycles: 1703076306 heartbeat IPC: 0.322027 cumulative IPC: 0.321755 (Simulation time: 0 hr 29 min 54 sec) 
Heartbeat CPU 0 instructions: 640000003 cycles: 1734037694 heartbeat IPC: 0.322983 cumulative IPC: 0.321777 (Simulation time: 0 hr 30 min 23 sec) 
Heartbeat CPU 0 instructions: 650000001 cycles: 1765398269 heartbeat IPC: 0.318872 cumulative IPC: 0.321724 (Simulation time: 0 hr 30 min 52 sec) 
Heartbeat CPU 0 instructions: 660000000 cycles: 1796431947 heartbeat IPC: 0.322231 cumulative IPC: 0.321733 (Simulation time: 0 hr 31 min 21 sec) 
Heartbeat CPU 0 instructions: 670000000 cycles: 1827524560 heartbeat IPC: 0.32162 cumulative IPC: 0.321731 (Simulation time: 0 hr 31 min 49 sec) 
Heartbeat CPU 0 instructions: 680000001 cycles: 1858630299 heartbeat IPC: 0.321484 cumulative IPC: 0.321727 (Simulation time: 0 hr 32 min 18 sec) 
Heartbeat CPU 0 instructions: 690000001 cycles: 1890047744 heartbeat IPC: 0.318294 cumulative IPC: 0.321668 (Simulation time: 0 hr 32 min 47 sec) 
Heartbeat CPU 0 instructions: 700000000 cycles: 1920880445 heartbeat IPC: 0.324331 cumulative IPC: 0.321712 (Simulation time: 0 hr 33 min 15 sec) 
Heartbeat CPU 0 instructions: 710000001 cycles: 1951600180 heartbeat IPC: 0.325524 cumulative IPC: 0.321774 (Simulation time: 0 hr 33 min 44 sec) 
Heartbeat CPU 0 instructions: 720000001 cycles: 1982859936 heartbeat IPC: 0.3199 cumulative IPC: 0.321743 (Simulation time: 0 hr 34 min 13 sec) 
Heartbeat CPU 0 instructions: 730000001 cycles: 2014098891 heartbeat IPC: 0.320113 cumulative IPC: 0.321717 (Simulation time: 0 hr 34 min 41 sec) 
Heartbeat CPU 0 instructions: 740000001 cycles: 2045659129 heartbeat IPC: 0.316854 cumulative IPC: 0.32164 (Simulation time: 0 hr 35 min 10 sec) 
Heartbeat CPU 0 instructions: 750000002 cycles: 2077068087 heartbeat IPC: 0.318381 cumulative IPC: 0.32159 (Simulation time: 0 hr 35 min 39 sec) 
Heartbeat CPU 0 instructions: 760000002 cycles: 2107847678 heartbeat IPC: 0.324891 cumulative IPC: 0.321639 (Simulation time: 0 hr 36 min 7 sec) 
Heartbeat CPU 0 instructions: 770000000 cycles: 2139612234 heartbeat IPC: 0.314816 cumulative IPC: 0.321535 (Simulation time: 0 hr 36 min 36 sec) 
Heartbeat CPU 0 instructions: 780000000 cycles: 2171009148 heartbeat IPC: 0.318503 cumulative IPC: 0.32149 (Simulation time: 0 hr 37 min 5 sec) 
Heartbeat CPU 0 instructions: 790000001 cycles: 2203509860 heartbeat IPC: 0.307686 cumulative IPC: 0.321281 (Simulation time: 0 hr 37 min 35 sec) 
Heartbeat CPU 0 instructions: 800000002 cycles: 2234614207 heartbeat IPC: 0.321499 cumulative IPC: 0.321284 (Simulation time: 0 hr 38 min 3 sec) 
Heartbeat CPU 0 instructions: 810000001 cycles: 2266055021 heartbeat IPC: 0.318058 cumulative IPC: 0.321238 (Simulation time: 0 hr 38 min 32 sec) 
Heartbeat CPU 0 instructions: 820000003 cycles: 2297141898 heartbeat IPC: 0.321679 cumulative IPC: 0.321245 (Simulation time: 0 hr 39 min 1 sec) 
Heartbeat CPU 0 instructions: 830000000 cycles: 2329253889 heartbeat IPC: 0.31141 cumulative IPC: 0.321106 (Simulation time: 0 hr 39 min 30 sec) 
Heartbeat CPU 0 instructions: 840000003 cycles: 2360988996 heartbeat IPC: 0.315109 cumulative IPC: 0.321023 (Simulation time: 0 hr 39 min 59 sec) 
Heartbeat CPU 0 instructions: 850000000 cycles: 2392730438 heartbeat IPC: 0.315045 cumulative IPC: 0.320942 (Simulation time: 0 hr 40 min 28 sec) 
Heartbeat CPU 0 instructions: 860000000 cycles: 2424551953 heartbeat IPC: 0.314253 cumulative IPC: 0.320852 (Simulation time: 0 hr 40 min 56 sec) 
Heartbeat CPU 0 instructions: 870000001 cycles: 2456759747 heartbeat IPC: 0.310484 cumulative IPC: 0.320713 (Simulation time: 0 hr 41 min 25 sec) 
Heartbeat CPU 0 instructions: 880000000 cycles: 2487866486 heartbeat IPC: 0.321474 cumulative IPC: 0.320723 (Simulation time: 0 hr 41 min 54 sec) 
Heartbeat CPU 0 instructions: 890000000 cycles: 2519393180 heartbeat IPC: 0.317192 cumulative IPC: 0.320677 (Simulation time: 0 hr 42 min 23 sec) 
Heartbeat CPU 0 instructions: 900000001 cycles: 2550511948 heartbeat IPC: 0.32135 cumulative IPC: 0.320686 (Simulation time: 0 hr 42 min 52 sec) 
Heartbeat CPU 0 instructions: 910000000 cycles: 2581954937 heartbeat IPC: 0.318036 cumulative IPC: 0.320653 (Simulation time: 0 hr 43 min 21 sec) 
Heartbeat CPU 0 instructions: 920000001 cycles: 2613366793 heartbeat IPC: 0.318351 cumulative IPC: 0.320625 (Simulation time: 0 hr 43 min 50 sec) 
Heartbeat CPU 0 instructions: 930000003 cycles: 2644734451 heartbeat IPC: 0.3188 cumulative IPC: 0.320603 (Simulation time: 0 hr 44 min 18 sec) 
Heartbeat CPU 0 instructions: 940000002 cycles: 2675780626 heartbeat IPC: 0.322101 cumulative IPC: 0.32062 (Simulation time: 0 hr 44 min 47 sec) 
Heartbeat CPU 0 instructions: 950000000 cycles: 2707307433 heartbeat IPC: 0.31719 cumulative IPC: 0.320579 (Simulation time: 0 hr 45 min 16 sec) 
Heartbeat CPU 0 instructions: 960000003 cycles: 2738328957 heartbeat IPC: 0.322357 cumulative IPC: 0.3206 (Simulation time: 0 hr 45 min 45 sec) 
Heartbeat CPU 0 instructions: 970000000 cycles: 2769460916 heartbeat IPC: 0.321213 cumulative IPC: 0.320607 (Simulation time: 0 hr 46 min 14 sec) 
Heartbeat CPU 0 instructions: 980000000 cycles: 2801098005 heartbeat IPC: 0.316085 cumulative IPC: 0.320555 (Simulation time: 0 hr 46 min 43 sec) 
Heartbeat CPU 0 instructions: 990000000 cycles: 2832046502 heartbeat IPC: 0.323117 cumulative IPC: 0.320584 (Simulation time: 0 hr 47 min 12 sec) 
Heartbeat CPU 0 instructions: 1000000000 cycles: 2862908531 heartbeat IPC: 0.324023 cumulative IPC: 0.320621 (Simulation time: 0 hr 47 min 40 sec) 
Heartbeat CPU 0 instructions: 1010000001 cycles: 2893922070 heartbeat IPC: 0.32244 cumulative IPC: 0.320641 (Simulation time: 0 hr 48 min 9 sec) 
Heartbeat CPU 0 instructions: 1020000001 cycles: 2925322698 heartbeat IPC: 0.318465 cumulative IPC: 0.320617 (Simulation time: 0 hr 48 min 37 sec) 
Heartbeat CPU 0 instructions: 1030000002 cycles: 2957519221 heartbeat IPC: 0.310593 cumulative IPC: 0.320506 (Simulation time: 0 hr 49 min 6 sec) 
Heartbeat CPU 0 instructions: 1040000000 cycles: 2988957577 heartbeat IPC: 0.318083 cumulative IPC: 0.32048 (Simulation time: 0 hr 49 min 35 sec) 
Heartbeat CPU 0 instructions: 1050000003 cycles: 3020292130 heartbeat IPC: 0.319137 cumulative IPC: 0.320466 (Simulation time: 0 hr 50 min 4 sec) 
Heartbeat CPU 0 instructions: 1060000002 cycles: 3051938808 heartbeat IPC: 0.315989 cumulative IPC: 0.320419 (Simulation time: 0 hr 50 min 33 sec) 
Heartbeat CPU 0 instructions: 1070000002 cycles: 3084058226 heartbeat IPC: 0.311338 cumulative IPC: 0.320322 (Simulation time: 0 hr 51 min 2 sec) 
Heartbeat CPU 0 instructions: 1080000000 cycles: 3115321183 heartbeat IPC: 0.319867 cumulative IPC: 0.320318 (Simulation time: 0 hr 51 min 31 sec) 
Heartbeat CPU 0 instructions: 1090000003 cycles: 3146546581 heartbeat IPC: 0.320252 cumulative IPC: 0.320317 (Simulation time: 0 hr 51 min 59 sec) 
Heartbeat CPU 0 instructions: 1100000000 cycles: 3177734485 heartbeat IPC: 0.320637 cumulative IPC: 0.32032 (Simulation time: 0 hr 52 min 28 sec) 
Finished CPU 0 instructions: 1000000002 cycles: 3121875530 cumulative IPC: 0.32032 (Simulation time: 0 hr 52 min 28 sec) 

ChampSim completed all CPUs

Region of Interest Statistics

CPU 0 cumulative IPC: 0.32032 instructions: 1000000002 cycles: 3121875530
L1D TOTAL     ACCESS:  423756539  HIT:  403746423  MISS:   20010116
L1D LOAD      ACCESS:  245471545  HIT:  227974254  MISS:   17497291
L1D RFO       ACCESS:  178284994  HIT:  175772169  MISS:    2512825
L1D PREFETCH  ACCESS:          0  HIT:          0  MISS:          0
L1D WRITEBACK ACCESS:          0  HIT:          0  MISS:          0
L1D PREFETCH  REQUESTED:          0  ISSUED:          0  USEFUL:          0  USELESS:          0
L1D AVERAGE MISS LATENCY: 141.338 cycles
L1I TOTAL     ACCESS:  177917214  HIT:  177530301  MISS:     386913
L1I LOAD      ACCESS:  177917214  HIT:  177530301  MISS:     386913
L1I RFO       ACCESS:          0  HIT:          0  MISS:          0
L1I PREFETCH  ACCESS:          0  HIT:          0  MISS:          0
L1I WRITEBACK ACCESS:          0  HIT:          0  MISS:          0
L1I PREFETCH  REQUESTED:          0  ISSUED:          0  USEFUL:          0  USELESS:          0
L1I AVERAGE MISS LATENCY: 33.021 cycles
L2C TOTAL     ACCESS:   30061797  HIT:   15599861  MISS:   14461936
L2C LOAD      ACCESS:   17883416  HIT:    5452063  MISS:   12431353
L2C RFO       ACCESS:    2512773  HIT:     512101  MISS:    2000672
L2C PREFETCH  ACCESS:          0  HIT:          0  MISS:          0
L2C WRITEBACK ACCESS:    9665608  HIT:    9635697  MISS:      29911
L2C PREFETCH  REQUESTED:          0  ISSUED:          0  USEFUL:          0  USELESS:          0
L2C AVERAGE MISS LATENCY: 174.685 cycles
LLC TOTAL     ACCESS:   21670298  HIT:    7614032  MISS:   14056266
LLC LOAD      ACCESS:   12431281  HIT:    3106550  MISS:    9324731
LLC RFO       ACCESS:    2000665  HIT:     679046  MISS:    1321619
LLC PREFETCH  ACCESS:          0  HIT:          0  MISS:          0
LLC WRITEBACK ACCESS:    7238352  HIT:    3828436  MISS:    3409916
LLC PREFETCH  REQUESTED:          0  ISSUED:          0  USEFUL:          0  USELESS:          0
LLC AVERAGE MISS LATENCY: 135.473 cycles
Major fault: 0 Minor fault: 51779
==============================
Perceptron RRIP Stats:
   Num Updates:          601894
   Num Primary Trains:   60428
   Num Secondary Trains: 61387
==============================
primary_perceptron #0: -4 2 2 2 0 2 2 8 -4 -2 0 -4 -2 4 -2 -8 
secondary_perceptron #0: -3 -1 1 -1 1 1 1 5 -3 -1 1 -3 -1 5 -5 1 -1 3 -1 -1 -11 


DRAM Statistics
 CHANNEL 0
 RQ ROW_BUFFER_HIT:     878785  ROW_BUFFER_MISS:    9767486
 DBUS_CONGESTED:    2726057
 WQ ROW_BUFFER_HIT:    1099420  ROW_BUFFER_MISS:    3898101  FULL:          0

 AVG_CONGESTED_CYCLE: 6

CPU 0 Branch Prediction Accuracy: 95.7698% MPKI: 8.79501 Average ROB Occupancy at Mispredict: 77.5719

Branch types
NOT_BRANCH: 792090406 79.209%
BRANCH_DIRECT_JUMP: 11386471 1.13865%
BRANCH_INDIRECT: 3364042 0.336404%
BRANCH_CONDITIONAL: 133667621 13.3668%
BRANCH_DIRECT_CALL: 17787880 1.77879%
BRANCH_INDIRECT_CALL: 11957676 1.19577%
BRANCH_RETURN: 29745554 2.97456%
BRANCH_OTHER: 0 0%

