
*** ChampSim Multicore Out-of-Order Simulator ***

Warmup Instructions: 100000000
Simulation Instructions: 1000000000
Number of CPUs: 1
LLC sets: 2048
LLC ways: 16
Off-chip DRAM Size: 4096 MB Channels: 1 Width: 64-bit Data Rate: 3200 MT/s

CPU 0 runs /scratch/user/kevin.weston/dpc3-traces/620.champsimtrace.xz
CPU 0 Bimodal branch predictor
Initialize SHIP state
Assign rand_sets[0]: 454  LLC: 2048
rand_sets[0]: 454
Assign rand_sets[1]: 1662  LLC: 2048
rand_sets[1]: 1662
Assign rand_sets[2]: 1921  LLC: 2048
rand_sets[2]: 1921
Assign rand_sets[3]: 1131  LLC: 2048
rand_sets[3]: 1131
Assign rand_sets[4]: 331  LLC: 2048
rand_sets[4]: 331
Assign rand_sets[5]: 1531  LLC: 2048
rand_sets[5]: 1531
Assign rand_sets[6]: 482  LLC: 2048
rand_sets[6]: 482
Assign rand_sets[7]: 1275  LLC: 2048
rand_sets[7]: 1275
Assign rand_sets[8]: 1876  LLC: 2048
rand_sets[8]: 1876
Assign rand_sets[9]: 2038  LLC: 2048
rand_sets[9]: 2038
Assign rand_sets[10]: 701  LLC: 2048
rand_sets[10]: 701
Assign rand_sets[11]: 479  LLC: 2048
rand_sets[11]: 479
Assign rand_sets[12]: 892  LLC: 2048
rand_sets[12]: 892
Assign rand_sets[13]: 1820  LLC: 2048
rand_sets[13]: 1820
Assign rand_sets[14]: 1505  LLC: 2048
rand_sets[14]: 1505
Assign rand_sets[15]: 1159  LLC: 2048
rand_sets[15]: 1159
Assign rand_sets[16]: 513  LLC: 2048
rand_sets[16]: 513
Assign rand_sets[17]: 703  LLC: 2048
rand_sets[17]: 703
Assign rand_sets[18]: 561  LLC: 2048
rand_sets[18]: 561
Assign rand_sets[19]: 990  LLC: 2048
rand_sets[19]: 990
Assign rand_sets[20]: 342  LLC: 2048
rand_sets[20]: 342
Assign rand_sets[21]: 882  LLC: 2048
rand_sets[21]: 882
Assign rand_sets[22]: 15  LLC: 2048
rand_sets[22]: 15
Assign rand_sets[23]: 71  LLC: 2048
rand_sets[23]: 71
Assign rand_sets[24]: 1127  LLC: 2048
rand_sets[24]: 1127
Assign rand_sets[25]: 1382  LLC: 2048
rand_sets[25]: 1382
Assign rand_sets[26]: 647  LLC: 2048
rand_sets[26]: 647
Assign rand_sets[27]: 857  LLC: 2048
rand_sets[27]: 857
Assign rand_sets[28]: 1450  LLC: 2048
rand_sets[28]: 1450
Assign rand_sets[29]: 1160  LLC: 2048
rand_sets[29]: 1160
Assign rand_sets[30]: 1852  LLC: 2048
rand_sets[30]: 1852
Assign rand_sets[31]: 1881  LLC: 2048
rand_sets[31]: 1881
Assign rand_sets[32]: 1770  LLC: 2048
rand_sets[32]: 1770
Assign rand_sets[33]: 1622  LLC: 2048
rand_sets[33]: 1622
Assign rand_sets[34]: 275  LLC: 2048
rand_sets[34]: 275
Assign rand_sets[35]: 635  LLC: 2048
rand_sets[35]: 635
Assign rand_sets[36]: 466  LLC: 2048
rand_sets[36]: 466
Assign rand_sets[37]: 1413  LLC: 2048
rand_sets[37]: 1413
Assign rand_sets[38]: 417  LLC: 2048
rand_sets[38]: 417
Assign rand_sets[39]: 472  LLC: 2048
rand_sets[39]: 472
Assign rand_sets[40]: 1340  LLC: 2048
rand_sets[40]: 1340
Assign rand_sets[41]: 852  LLC: 2048
rand_sets[41]: 852
Assign rand_sets[42]: 1365  LLC: 2048
rand_sets[42]: 1365
Assign rand_sets[43]: 47  LLC: 2048
rand_sets[43]: 47
Assign rand_sets[44]: 823  LLC: 2048
rand_sets[44]: 823
Assign rand_sets[45]: 686  LLC: 2048
rand_sets[45]: 686
Assign rand_sets[46]: 1637  LLC: 2048
rand_sets[46]: 1637
Assign rand_sets[47]: 1115  LLC: 2048
rand_sets[47]: 1115
Assign rand_sets[48]: 986  LLC: 2048
rand_sets[48]: 986
Assign rand_sets[49]: 258  LLC: 2048
rand_sets[49]: 258
Assign rand_sets[50]: 633  LLC: 2048
rand_sets[50]: 633
Assign rand_sets[51]: 920  LLC: 2048
rand_sets[51]: 920
Assign rand_sets[52]: 204  LLC: 2048
rand_sets[52]: 204
Assign rand_sets[53]: 227  LLC: 2048
rand_sets[53]: 227
Assign rand_sets[54]: 1818  LLC: 2048
rand_sets[54]: 1818
Assign rand_sets[55]: 886  LLC: 2048
rand_sets[55]: 886
Assign rand_sets[56]: 1422  LLC: 2048
rand_sets[56]: 1422
Assign rand_sets[57]: 607  LLC: 2048
rand_sets[57]: 607
Assign rand_sets[58]: 217  LLC: 2048
rand_sets[58]: 217
Assign rand_sets[59]: 1945  LLC: 2048
rand_sets[59]: 1945
Assign rand_sets[60]: 143  LLC: 2048
rand_sets[60]: 143
Assign rand_sets[61]: 1311  LLC: 2048
rand_sets[61]: 1311
Assign rand_sets[62]: 319  LLC: 2048
rand_sets[62]: 319
Assign rand_sets[63]: 1846  LLC: 2048
rand_sets[63]: 1846
Assign rand_sets[64]: 238  LLC: 2048
rand_sets[64]: 238
Assign rand_sets[65]: 67  LLC: 2048
rand_sets[65]: 67
Assign rand_sets[66]: 1912  LLC: 2048
rand_sets[66]: 1912
Assign rand_sets[67]: 1613  LLC: 2048
rand_sets[67]: 1613
Assign rand_sets[68]: 1293  LLC: 2048
rand_sets[68]: 1293
Assign rand_sets[69]: 1018  LLC: 2048
rand_sets[69]: 1018
Assign rand_sets[70]: 1982  LLC: 2048
rand_sets[70]: 1982
Assign rand_sets[71]: 1702  LLC: 2048
rand_sets[71]: 1702
Assign rand_sets[72]: 1498  LLC: 2048
rand_sets[72]: 1498
Assign rand_sets[73]: 228  LLC: 2048
rand_sets[73]: 228
Assign rand_sets[74]: 1414  LLC: 2048
rand_sets[74]: 1414
Assign rand_sets[75]: 1166  LLC: 2048
rand_sets[75]: 1166
Assign rand_sets[76]: 732  LLC: 2048
rand_sets[76]: 732
Assign rand_sets[77]: 297  LLC: 2048
rand_sets[77]: 297
Assign rand_sets[78]: 1133  LLC: 2048
rand_sets[78]: 1133
Assign rand_sets[79]: 846  LLC: 2048
rand_sets[79]: 846
Assign rand_sets[80]: 767  LLC: 2048
rand_sets[80]: 767
Assign rand_sets[81]: 1878  LLC: 2048
rand_sets[81]: 1878
Assign rand_sets[82]: 993  LLC: 2048
rand_sets[82]: 993
Assign rand_sets[83]: 1392  LLC: 2048
rand_sets[83]: 1392
Assign rand_sets[84]: 1568  LLC: 2048
rand_sets[84]: 1568
Assign rand_sets[85]: 1787  LLC: 2048
rand_sets[85]: 1787
Assign rand_sets[86]: 399  LLC: 2048
rand_sets[86]: 399
Assign rand_sets[87]: 1201  LLC: 2048
rand_sets[87]: 1201
Assign rand_sets[88]: 856  LLC: 2048
rand_sets[88]: 856
Assign rand_sets[89]: 773  LLC: 2048
rand_sets[89]: 773
Assign rand_sets[90]: 1680  LLC: 2048
rand_sets[90]: 1680
Assign rand_sets[91]: 1477  LLC: 2048
rand_sets[91]: 1477
Assign rand_sets[92]: 9  LLC: 2048
rand_sets[92]: 9
Assign rand_sets[93]: 1500  LLC: 2048
rand_sets[93]: 1500
Assign rand_sets[94]: 851  LLC: 2048
rand_sets[94]: 851
Assign rand_sets[95]: 973  LLC: 2048
rand_sets[95]: 973
Assign rand_sets[96]: 938  LLC: 2048
rand_sets[96]: 938
Assign rand_sets[97]: 1851  LLC: 2048
rand_sets[97]: 1851
Assign rand_sets[98]: 1608  LLC: 2048
rand_sets[98]: 1608
Assign rand_sets[99]: 1945  LLC: 2048
Assign rand_sets[99]: 1106  LLC: 2048
rand_sets[99]: 1106
Assign rand_sets[100]: 979  LLC: 2048
rand_sets[100]: 979
Assign rand_sets[101]: 338  LLC: 2048
rand_sets[101]: 338
Assign rand_sets[102]: 1693  LLC: 2048
rand_sets[102]: 1693
Assign rand_sets[103]: 6  LLC: 2048
rand_sets[103]: 6
Assign rand_sets[104]: 671  LLC: 2048
rand_sets[104]: 671
Assign rand_sets[105]: 490  LLC: 2048
rand_sets[105]: 490
Assign rand_sets[106]: 1461  LLC: 2048
rand_sets[106]: 1461
Assign rand_sets[107]: 1730  LLC: 2048
rand_sets[107]: 1730
Assign rand_sets[108]: 1030  LLC: 2048
rand_sets[108]: 1030
Assign rand_sets[109]: 19  LLC: 2048
rand_sets[109]: 19
Assign rand_sets[110]: 920  LLC: 2048
Assign rand_sets[110]: 329  LLC: 2048
rand_sets[110]: 329
Assign rand_sets[111]: 1714  LLC: 2048
rand_sets[111]: 1714
Assign rand_sets[112]: 1  LLC: 2048
rand_sets[112]: 1
Assign rand_sets[113]: 1822  LLC: 2048
rand_sets[113]: 1822
Assign rand_sets[114]: 172  LLC: 2048
rand_sets[114]: 172
Assign rand_sets[115]: 1586  LLC: 2048
rand_sets[115]: 1586
Assign rand_sets[116]: 648  LLC: 2048
rand_sets[116]: 648
Assign rand_sets[117]: 1329  LLC: 2048
rand_sets[117]: 1329
Assign rand_sets[118]: 668  LLC: 2048
rand_sets[118]: 668
Assign rand_sets[119]: 1874  LLC: 2048
rand_sets[119]: 1874
Assign rand_sets[120]: 70  LLC: 2048
rand_sets[120]: 70
Assign rand_sets[121]: 661  LLC: 2048
rand_sets[121]: 661
Assign rand_sets[122]: 1649  LLC: 2048
rand_sets[122]: 1649
Assign rand_sets[123]: 1590  LLC: 2048
rand_sets[123]: 1590
Assign rand_sets[124]: 911  LLC: 2048
rand_sets[124]: 911
Assign rand_sets[125]: 1367  LLC: 2048
rand_sets[125]: 1367
Assign rand_sets[126]: 1782  LLC: 2048
rand_sets[126]: 1782
Assign rand_sets[127]: 569  LLC: 2048
rand_sets[127]: 569
Heartbeat CPU 0 instructions: 10000001 cycles: 5584424 heartbeat IPC: 1.7907 cumulative IPC: 1.7907 (Simulation time: 0 hr 0 min 28 sec) 
Heartbeat CPU 0 instructions: 20000000 cycles: 11168792 heartbeat IPC: 1.79071 cumulative IPC: 1.7907 (Simulation time: 0 hr 0 min 55 sec) 
Heartbeat CPU 0 instructions: 30000002 cycles: 16745416 heartbeat IPC: 1.7932 cumulative IPC: 1.79154 (Simulation time: 0 hr 1 min 23 sec) 
Heartbeat CPU 0 instructions: 40000000 cycles: 22337983 heartbeat IPC: 1.78809 cumulative IPC: 1.79067 (Simulation time: 0 hr 1 min 50 sec) 
Heartbeat CPU 0 instructions: 50000000 cycles: 27923164 heartbeat IPC: 1.79045 cumulative IPC: 1.79063 (Simulation time: 0 hr 2 min 17 sec) 
Heartbeat CPU 0 instructions: 60000001 cycles: 33521339 heartbeat IPC: 1.7863 cumulative IPC: 1.7899 (Simulation time: 0 hr 2 min 44 sec) 
Heartbeat CPU 0 instructions: 70000001 cycles: 39100485 heartbeat IPC: 1.79239 cumulative IPC: 1.79026 (Simulation time: 0 hr 3 min 12 sec) 
Heartbeat CPU 0 instructions: 80000001 cycles: 44679184 heartbeat IPC: 1.79253 cumulative IPC: 1.79054 (Simulation time: 0 hr 3 min 39 sec) 
Heartbeat CPU 0 instructions: 90000001 cycles: 50266518 heartbeat IPC: 1.78976 cumulative IPC: 1.79046 (Simulation time: 0 hr 4 min 6 sec) 
Heartbeat CPU 0 instructions: 100000003 cycles: 55856186 heartbeat IPC: 1.78902 cumulative IPC: 1.79031 (Simulation time: 0 hr 4 min 33 sec) 

Warmup complete CPU 0 instructions: 100000003 cycles: 55856186 (Simulation time: 0 hr 4 min 33 sec) 

Heartbeat CPU 0 instructions: 110000000 cycles: 85742502 heartbeat IPC: 0.334601 cumulative IPC: 0.334601 (Simulation time: 0 hr 5 min 2 sec) 
Heartbeat CPU 0 instructions: 120000000 cycles: 115602622 heartbeat IPC: 0.334895 cumulative IPC: 0.334748 (Simulation time: 0 hr 5 min 31 sec) 
Heartbeat CPU 0 instructions: 130000000 cycles: 145858102 heartbeat IPC: 0.330519 cumulative IPC: 0.333326 (Simulation time: 0 hr 6 min 0 sec) 
Heartbeat CPU 0 instructions: 140000001 cycles: 175701210 heartbeat IPC: 0.335086 cumulative IPC: 0.333764 (Simulation time: 0 hr 6 min 30 sec) 
Heartbeat CPU 0 instructions: 150000002 cycles: 205740237 heartbeat IPC: 0.3329 cumulative IPC: 0.333591 (Simulation time: 0 hr 6 min 59 sec) 
Heartbeat CPU 0 instructions: 160000000 cycles: 236085417 heartbeat IPC: 0.329542 cumulative IPC: 0.332909 (Simulation time: 0 hr 7 min 28 sec) 
Heartbeat CPU 0 instructions: 170000000 cycles: 265705332 heartbeat IPC: 0.337611 cumulative IPC: 0.333573 (Simulation time: 0 hr 7 min 58 sec) 
Heartbeat CPU 0 instructions: 180000000 cycles: 295611610 heartbeat IPC: 0.334378 cumulative IPC: 0.333673 (Simulation time: 0 hr 8 min 27 sec) 
Heartbeat CPU 0 instructions: 190000003 cycles: 325660541 heartbeat IPC: 0.332791 cumulative IPC: 0.333575 (Simulation time: 0 hr 8 min 57 sec) 
Heartbeat CPU 0 instructions: 200000000 cycles: 355439105 heartbeat IPC: 0.335812 cumulative IPC: 0.333797 (Simulation time: 0 hr 9 min 26 sec) 
Heartbeat CPU 0 instructions: 210000000 cycles: 385411048 heartbeat IPC: 0.333645 cumulative IPC: 0.333784 (Simulation time: 0 hr 9 min 55 sec) 
Heartbeat CPU 0 instructions: 220000000 cycles: 415346502 heartbeat IPC: 0.334052 cumulative IPC: 0.333806 (Simulation time: 0 hr 10 min 24 sec) 
Heartbeat CPU 0 instructions: 230000002 cycles: 444885464 heartbeat IPC: 0.338536 cumulative IPC: 0.334165 (Simulation time: 0 hr 10 min 53 sec) 
Heartbeat CPU 0 instructions: 240000001 cycles: 474772187 heartbeat IPC: 0.334597 cumulative IPC: 0.334196 (Simulation time: 0 hr 11 min 23 sec) 
Heartbeat CPU 0 instructions: 250000000 cycles: 504700286 heartbeat IPC: 0.334134 cumulative IPC: 0.334192 (Simulation time: 0 hr 11 min 52 sec) 
Heartbeat CPU 0 instructions: 260000000 cycles: 534711492 heartbeat IPC: 0.333209 cumulative IPC: 0.33413 (Simulation time: 0 hr 12 min 21 sec) 
Heartbeat CPU 0 instructions: 270000002 cycles: 564936076 heartbeat IPC: 0.330857 cumulative IPC: 0.333936 (Simulation time: 0 hr 12 min 51 sec) 
Heartbeat CPU 0 instructions: 280000001 cycles: 594987442 heartbeat IPC: 0.332764 cumulative IPC: 0.33387 (Simulation time: 0 hr 13 min 20 sec) 
Heartbeat CPU 0 instructions: 290000000 cycles: 625272638 heartbeat IPC: 0.330194 cumulative IPC: 0.333675 (Simulation time: 0 hr 13 min 49 sec) 
Heartbeat CPU 0 instructions: 300000000 cycles: 655268166 heartbeat IPC: 0.333383 cumulative IPC: 0.33366 (Simulation time: 0 hr 14 min 18 sec) 
Heartbeat CPU 0 instructions: 310000000 cycles: 684891070 heartbeat IPC: 0.337577 cumulative IPC: 0.333845 (Simulation time: 0 hr 14 min 47 sec) 
Heartbeat CPU 0 instructions: 320000002 cycles: 714926562 heartbeat IPC: 0.33294 cumulative IPC: 0.333804 (Simulation time: 0 hr 15 min 16 sec) 
Heartbeat CPU 0 instructions: 330000000 cycles: 745014218 heartbeat IPC: 0.332362 cumulative IPC: 0.333741 (Simulation time: 0 hr 15 min 46 sec) 
Heartbeat CPU 0 instructions: 340000001 cycles: 775282102 heartbeat IPC: 0.330383 cumulative IPC: 0.333599 (Simulation time: 0 hr 16 min 15 sec) 
Heartbeat CPU 0 instructions: 350000000 cycles: 805499413 heartbeat IPC: 0.330936 cumulative IPC: 0.333492 (Simulation time: 0 hr 16 min 45 sec) 
Heartbeat CPU 0 instructions: 360000003 cycles: 835542500 heartbeat IPC: 0.332855 cumulative IPC: 0.333467 (Simulation time: 0 hr 17 min 14 sec) 
Heartbeat CPU 0 instructions: 370000000 cycles: 865321870 heartbeat IPC: 0.335803 cumulative IPC: 0.333553 (Simulation time: 0 hr 17 min 43 sec) 
Heartbeat CPU 0 instructions: 380000003 cycles: 895258316 heartbeat IPC: 0.334041 cumulative IPC: 0.333571 (Simulation time: 0 hr 18 min 12 sec) 
Heartbeat CPU 0 instructions: 390000003 cycles: 924816784 heartbeat IPC: 0.338313 cumulative IPC: 0.333732 (Simulation time: 0 hr 18 min 41 sec) 
Heartbeat CPU 0 instructions: 400000000 cycles: 955104389 heartbeat IPC: 0.330168 cumulative IPC: 0.333612 (Simulation time: 0 hr 19 min 10 sec) 
Heartbeat CPU 0 instructions: 410000001 cycles: 985095352 heartbeat IPC: 0.333434 cumulative IPC: 0.333606 (Simulation time: 0 hr 19 min 39 sec) 
Heartbeat CPU 0 instructions: 420000000 cycles: 1014997857 heartbeat IPC: 0.33442 cumulative IPC: 0.333632 (Simulation time: 0 hr 20 min 9 sec) 
Heartbeat CPU 0 instructions: 430000000 cycles: 1045092164 heartbeat IPC: 0.332289 cumulative IPC: 0.333591 (Simulation time: 0 hr 20 min 40 sec) 
Heartbeat CPU 0 instructions: 440000000 cycles: 1074722074 heartbeat IPC: 0.337497 cumulative IPC: 0.333704 (Simulation time: 0 hr 21 min 9 sec) 
Heartbeat CPU 0 instructions: 450000001 cycles: 1104754488 heartbeat IPC: 0.332974 cumulative IPC: 0.333683 (Simulation time: 0 hr 21 min 38 sec) 
Heartbeat CPU 0 instructions: 460000002 cycles: 1133994674 heartbeat IPC: 0.341995 cumulative IPC: 0.333909 (Simulation time: 0 hr 22 min 7 sec) 
Heartbeat CPU 0 instructions: 470000002 cycles: 1163792926 heartbeat IPC: 0.33559 cumulative IPC: 0.333954 (Simulation time: 0 hr 22 min 36 sec) 
Heartbeat CPU 0 instructions: 480000000 cycles: 1193678009 heartbeat IPC: 0.334615 cumulative IPC: 0.333971 (Simulation time: 0 hr 23 min 6 sec) 
Heartbeat CPU 0 instructions: 490000000 cycles: 1223351778 heartbeat IPC: 0.336998 cumulative IPC: 0.334048 (Simulation time: 0 hr 23 min 35 sec) 
Heartbeat CPU 0 instructions: 500000000 cycles: 1252843496 heartbeat IPC: 0.339078 cumulative IPC: 0.334172 (Simulation time: 0 hr 24 min 4 sec) 
Heartbeat CPU 0 instructions: 510000003 cycles: 1282554159 heartbeat IPC: 0.33658 cumulative IPC: 0.334231 (Simulation time: 0 hr 24 min 33 sec) 
Heartbeat CPU 0 instructions: 520000001 cycles: 1312092837 heartbeat IPC: 0.338539 cumulative IPC: 0.334332 (Simulation time: 0 hr 25 min 2 sec) 
Heartbeat CPU 0 instructions: 530000001 cycles: 1342110053 heartbeat IPC: 0.333142 cumulative IPC: 0.334304 (Simulation time: 0 hr 25 min 31 sec) 
Heartbeat CPU 0 instructions: 540000001 cycles: 1371295610 heartbeat IPC: 0.342635 cumulative IPC: 0.334489 (Simulation time: 0 hr 26 min 0 sec) 
Heartbeat CPU 0 instructions: 550000000 cycles: 1401405027 heartbeat IPC: 0.332122 cumulative IPC: 0.334436 (Simulation time: 0 hr 26 min 29 sec) 
Heartbeat CPU 0 instructions: 560000000 cycles: 1431588937 heartbeat IPC: 0.331302 cumulative IPC: 0.334367 (Simulation time: 0 hr 26 min 59 sec) 
Heartbeat CPU 0 instructions: 570000002 cycles: 1461170240 heartbeat IPC: 0.338051 cumulative IPC: 0.334445 (Simulation time: 0 hr 27 min 27 sec) 
Heartbeat CPU 0 instructions: 580000000 cycles: 1490659830 heartbeat IPC: 0.339103 cumulative IPC: 0.334541 (Simulation time: 0 hr 27 min 56 sec) 
Heartbeat CPU 0 instructions: 590000002 cycles: 1520797908 heartbeat IPC: 0.331806 cumulative IPC: 0.334484 (Simulation time: 0 hr 28 min 27 sec) 
Heartbeat CPU 0 instructions: 600000000 cycles: 1550548437 heartbeat IPC: 0.336128 cumulative IPC: 0.334517 (Simulation time: 0 hr 28 min 57 sec) 
Heartbeat CPU 0 instructions: 610000000 cycles: 1580348477 heartbeat IPC: 0.33557 cumulative IPC: 0.334538 (Simulation time: 0 hr 29 min 28 sec) 
Heartbeat CPU 0 instructions: 620000000 cycles: 1610986568 heartbeat IPC: 0.326391 cumulative IPC: 0.334377 (Simulation time: 0 hr 29 min 58 sec) 
Heartbeat CPU 0 instructions: 630000001 cycles: 1640840559 heartbeat IPC: 0.334964 cumulative IPC: 0.334388 (Simulation time: 0 hr 30 min 29 sec) 
Heartbeat CPU 0 instructions: 640000003 cycles: 1670674680 heartbeat IPC: 0.335187 cumulative IPC: 0.334403 (Simulation time: 0 hr 30 min 59 sec) 
Heartbeat CPU 0 instructions: 650000001 cycles: 1700797099 heartbeat IPC: 0.331979 cumulative IPC: 0.334359 (Simulation time: 0 hr 31 min 30 sec) 
Heartbeat CPU 0 instructions: 660000000 cycles: 1730521244 heartbeat IPC: 0.336427 cumulative IPC: 0.334395 (Simulation time: 0 hr 32 min 1 sec) 
Heartbeat CPU 0 instructions: 670000000 cycles: 1760481999 heartbeat IPC: 0.33377 cumulative IPC: 0.334384 (Simulation time: 0 hr 32 min 32 sec) 
Heartbeat CPU 0 instructions: 680000001 cycles: 1790280551 heartbeat IPC: 0.335587 cumulative IPC: 0.334405 (Simulation time: 0 hr 33 min 3 sec) 
Heartbeat CPU 0 instructions: 690000001 cycles: 1820473293 heartbeat IPC: 0.331205 cumulative IPC: 0.33435 (Simulation time: 0 hr 33 min 33 sec) 
Heartbeat CPU 0 instructions: 700000000 cycles: 1850184238 heartbeat IPC: 0.336576 cumulative IPC: 0.334387 (Simulation time: 0 hr 34 min 4 sec) 
Heartbeat CPU 0 instructions: 710000001 cycles: 1879879717 heartbeat IPC: 0.336752 cumulative IPC: 0.334426 (Simulation time: 0 hr 34 min 34 sec) 
Heartbeat CPU 0 instructions: 720000001 cycles: 1909884080 heartbeat IPC: 0.333285 cumulative IPC: 0.334407 (Simulation time: 0 hr 35 min 5 sec) 
Heartbeat CPU 0 instructions: 730000001 cycles: 1940015711 heartbeat IPC: 0.331877 cumulative IPC: 0.334367 (Simulation time: 0 hr 35 min 36 sec) 
Heartbeat CPU 0 instructions: 740000001 cycles: 1970188547 heartbeat IPC: 0.331424 cumulative IPC: 0.33432 (Simulation time: 0 hr 36 min 6 sec) 
Heartbeat CPU 0 instructions: 750000002 cycles: 2000372892 heartbeat IPC: 0.331298 cumulative IPC: 0.334273 (Simulation time: 0 hr 36 min 37 sec) 
Heartbeat CPU 0 instructions: 760000002 cycles: 2030133790 heartbeat IPC: 0.336011 cumulative IPC: 0.3343 (Simulation time: 0 hr 37 min 7 sec) 
Heartbeat CPU 0 instructions: 770000000 cycles: 2060832732 heartbeat IPC: 0.325744 cumulative IPC: 0.334168 (Simulation time: 0 hr 37 min 38 sec) 
Heartbeat CPU 0 instructions: 780000000 cycles: 2090978970 heartbeat IPC: 0.331716 cumulative IPC: 0.334132 (Simulation time: 0 hr 38 min 9 sec) 
Heartbeat CPU 0 instructions: 790000001 cycles: 2122224802 heartbeat IPC: 0.320043 cumulative IPC: 0.333919 (Simulation time: 0 hr 38 min 40 sec) 
Heartbeat CPU 0 instructions: 800000002 cycles: 2152116720 heartbeat IPC: 0.334539 cumulative IPC: 0.333928 (Simulation time: 0 hr 39 min 11 sec) 
Heartbeat CPU 0 instructions: 810000001 cycles: 2182503390 heartbeat IPC: 0.329092 cumulative IPC: 0.333859 (Simulation time: 0 hr 39 min 41 sec) 
Heartbeat CPU 0 instructions: 820000003 cycles: 2212501594 heartbeat IPC: 0.333353 cumulative IPC: 0.333852 (Simulation time: 0 hr 40 min 12 sec) 
Heartbeat CPU 0 instructions: 830000000 cycles: 2243235785 heartbeat IPC: 0.32537 cumulative IPC: 0.333733 (Simulation time: 0 hr 40 min 43 sec) 
Heartbeat CPU 0 instructions: 840000003 cycles: 2273823826 heartbeat IPC: 0.326925 cumulative IPC: 0.333639 (Simulation time: 0 hr 41 min 13 sec) 
Heartbeat CPU 0 instructions: 850000000 cycles: 2304219498 heartbeat IPC: 0.328994 cumulative IPC: 0.333576 (Simulation time: 0 hr 41 min 44 sec) 
Heartbeat CPU 0 instructions: 860000000 cycles: 2334707655 heartbeat IPC: 0.327996 cumulative IPC: 0.333501 (Simulation time: 0 hr 42 min 15 sec) 
Heartbeat CPU 0 instructions: 870000001 cycles: 2365622517 heartbeat IPC: 0.323469 cumulative IPC: 0.333367 (Simulation time: 0 hr 42 min 46 sec) 
Heartbeat CPU 0 instructions: 880000000 cycles: 2395596460 heartbeat IPC: 0.333623 cumulative IPC: 0.33337 (Simulation time: 0 hr 43 min 17 sec) 
Heartbeat CPU 0 instructions: 890000000 cycles: 2425782162 heartbeat IPC: 0.331283 cumulative IPC: 0.333344 (Simulation time: 0 hr 43 min 47 sec) 
Heartbeat CPU 0 instructions: 900000001 cycles: 2455754526 heartbeat IPC: 0.333641 cumulative IPC: 0.333347 (Simulation time: 0 hr 44 min 18 sec) 
Heartbeat CPU 0 instructions: 910000000 cycles: 2485949409 heartbeat IPC: 0.331182 cumulative IPC: 0.333321 (Simulation time: 0 hr 44 min 49 sec) 
Heartbeat CPU 0 instructions: 920000001 cycles: 2516174933 heartbeat IPC: 0.330846 cumulative IPC: 0.33329 (Simulation time: 0 hr 45 min 20 sec) 
Heartbeat CPU 0 instructions: 930000003 cycles: 2546419448 heartbeat IPC: 0.330639 cumulative IPC: 0.333258 (Simulation time: 0 hr 45 min 51 sec) 
Heartbeat CPU 0 instructions: 940000002 cycles: 2576226871 heartbeat IPC: 0.335487 cumulative IPC: 0.333284 (Simulation time: 0 hr 46 min 21 sec) 
Heartbeat CPU 0 instructions: 950000000 cycles: 2606298144 heartbeat IPC: 0.332543 cumulative IPC: 0.333276 (Simulation time: 0 hr 46 min 52 sec) 
Heartbeat CPU 0 instructions: 960000003 cycles: 2636100849 heartbeat IPC: 0.33554 cumulative IPC: 0.333302 (Simulation time: 0 hr 47 min 22 sec) 
Heartbeat CPU 0 instructions: 970000000 cycles: 2666128699 heartbeat IPC: 0.333024 cumulative IPC: 0.333299 (Simulation time: 0 hr 47 min 53 sec) 
Heartbeat CPU 0 instructions: 980000000 cycles: 2696597141 heartbeat IPC: 0.328208 cumulative IPC: 0.33324 (Simulation time: 0 hr 48 min 24 sec) 
Heartbeat CPU 0 instructions: 990000000 cycles: 2726400073 heartbeat IPC: 0.335537 cumulative IPC: 0.333265 (Simulation time: 0 hr 48 min 55 sec) 
Heartbeat CPU 0 instructions: 1000000000 cycles: 2756167101 heartbeat IPC: 0.335942 cumulative IPC: 0.333295 (Simulation time: 0 hr 49 min 25 sec) 
Heartbeat CPU 0 instructions: 1010000001 cycles: 2786167271 heartbeat IPC: 0.333331 cumulative IPC: 0.333295 (Simulation time: 0 hr 49 min 56 sec) 
Heartbeat CPU 0 instructions: 1020000000 cycles: 2816364464 heartbeat IPC: 0.331157 cumulative IPC: 0.333272 (Simulation time: 0 hr 50 min 26 sec) 
Heartbeat CPU 0 instructions: 1030000002 cycles: 2847360032 heartbeat IPC: 0.322627 cumulative IPC: 0.333154 (Simulation time: 0 hr 50 min 58 sec) 
Heartbeat CPU 0 instructions: 1040000000 cycles: 2877617022 heartbeat IPC: 0.330502 cumulative IPC: 0.333125 (Simulation time: 0 hr 51 min 28 sec) 
Heartbeat CPU 0 instructions: 1050000003 cycles: 2907753594 heartbeat IPC: 0.331823 cumulative IPC: 0.333112 (Simulation time: 0 hr 51 min 59 sec) 
Heartbeat CPU 0 instructions: 1060000002 cycles: 2938139758 heartbeat IPC: 0.329097 cumulative IPC: 0.333069 (Simulation time: 0 hr 52 min 31 sec) 
Heartbeat CPU 0 instructions: 1070000002 cycles: 2968851555 heartbeat IPC: 0.325608 cumulative IPC: 0.332991 (Simulation time: 0 hr 53 min 2 sec) 
Heartbeat CPU 0 instructions: 1080000000 cycles: 2999018742 heartbeat IPC: 0.331486 cumulative IPC: 0.332975 (Simulation time: 0 hr 53 min 34 sec) 
Heartbeat CPU 0 instructions: 1090000003 cycles: 3028976013 heartbeat IPC: 0.333809 cumulative IPC: 0.332984 (Simulation time: 0 hr 54 min 5 sec) 
Heartbeat CPU 0 instructions: 1100000000 cycles: 3058958039 heartbeat IPC: 0.333533 cumulative IPC: 0.332989 (Simulation time: 0 hr 54 min 37 sec) 
Finished CPU 0 instructions: 1000000002 cycles: 3003101862 cumulative IPC: 0.332989 (Simulation time: 0 hr 54 min 37 sec) 

ChampSim completed all CPUs

Region of Interest Statistics

CPU 0 cumulative IPC: 0.332989 instructions: 1000000002 cycles: 3003101862
L1D TOTAL     ACCESS:  424573518  HIT:  404563182  MISS:   20010336
L1D LOAD      ACCESS:  245828417  HIT:  228331382  MISS:   17497035
L1D RFO       ACCESS:  178745101  HIT:  176231800  MISS:    2513301
L1D PREFETCH  ACCESS:          0  HIT:          0  MISS:          0
L1D WRITEBACK ACCESS:          0  HIT:          0  MISS:          0
L1D PREFETCH  REQUESTED:          0  ISSUED:          0  USEFUL:          0  USELESS:          0
L1D AVERAGE MISS LATENCY: 127.405 cycles
L1I TOTAL     ACCESS:  177928029  HIT:  177541116  MISS:     386913
L1I LOAD      ACCESS:  177928029  HIT:  177541116  MISS:     386913
L1I RFO       ACCESS:          0  HIT:          0  MISS:          0
L1I PREFETCH  ACCESS:          0  HIT:          0  MISS:          0
L1I WRITEBACK ACCESS:          0  HIT:          0  MISS:          0
L1I PREFETCH  REQUESTED:          0  ISSUED:          0  USEFUL:          0  USELESS:          0
L1I AVERAGE MISS LATENCY: 32.8262 cycles
L2C TOTAL     ACCESS:   30062507  HIT:   15597962  MISS:   14464545
L2C LOAD      ACCESS:   17883147  HIT:    5448749  MISS:   12434398
L2C RFO       ACCESS:    2513249  HIT:     513088  MISS:    2000161
L2C PREFETCH  ACCESS:          0  HIT:          0  MISS:          0
L2C WRITEBACK ACCESS:    9666111  HIT:    9636125  MISS:      29986
L2C PREFETCH  REQUESTED:          0  ISSUED:          0  USEFUL:          0  USELESS:          0
L2C AVERAGE MISS LATENCY: 155.219 cycles
LLC TOTAL     ACCESS:   21676625  HIT:   11459191  MISS:   10217434
LLC LOAD      ACCESS:   12434344  HIT:    4277598  MISS:    8156746
LLC RFO       ACCESS:    2000149  HIT:    1094242  MISS:     905907
LLC PREFETCH  ACCESS:          0  HIT:          0  MISS:          0
LLC WRITEBACK ACCESS:    7242132  HIT:    6087351  MISS:    1154781
LLC PREFETCH  REQUESTED:          0  ISSUED:          0  USEFUL:          0  USELESS:          0
LLC AVERAGE MISS LATENCY: 158.317 cycles
Major fault: 0 Minor fault: 51779

DRAM Statistics
 CHANNEL 0
 RQ ROW_BUFFER_HIT:     778153  ROW_BUFFER_MISS:    8284486
 DBUS_CONGESTED:    2320483
 WQ ROW_BUFFER_HIT:     903246  ROW_BUFFER_MISS:    3256455  FULL:          0

 AVG_CONGESTED_CYCLE: 6

CPU 0 Branch Prediction Accuracy: 95.7698% MPKI: 8.79501 Average ROB Occupancy at Mispredict: 76.9536

Branch types
NOT_BRANCH: 792090406 79.209%
BRANCH_DIRECT_JUMP: 11386471 1.13865%
BRANCH_INDIRECT: 3364042 0.336404%
BRANCH_CONDITIONAL: 133667621 13.3668%
BRANCH_DIRECT_CALL: 17787880 1.77879%
BRANCH_INDIRECT_CALL: 11957676 1.19577%
BRANCH_RETURN: 29745554 2.97456%
BRANCH_OTHER: 0 0%

