
*** ChampSim Multicore Out-of-Order Simulator ***

Warmup Instructions: 100000000
Simulation Instructions: 1000000000
Number of CPUs: 1
LLC sets: 2048
LLC ways: 16
Off-chip DRAM Size: 4096 MB Channels: 1 Width: 64-bit Data Rate: 3200 MT/s

CPU 0 runs /scratch/user/kevin.weston/dpc3-traces/620.champsimtrace.xz
CPU 0 Bimodal branch predictor
Initialize DRRIP state
Assign rand_sets[0]: 454  LLC: 2048
rand_sets[0]: 454
Assign rand_sets[1]: 1662  LLC: 2048
rand_sets[1]: 1662
Assign rand_sets[2]: 1921  LLC: 2048
rand_sets[2]: 1921
Assign rand_sets[3]: 1131  LLC: 2048
rand_sets[3]: 1131
Assign rand_sets[4]: 331  LLC: 2048
rand_sets[4]: 331
Assign rand_sets[5]: 1531  LLC: 2048
rand_sets[5]: 1531
Assign rand_sets[6]: 482  LLC: 2048
rand_sets[6]: 482
Assign rand_sets[7]: 1275  LLC: 2048
rand_sets[7]: 1275
Assign rand_sets[8]: 1876  LLC: 2048
rand_sets[8]: 1876
Assign rand_sets[9]: 2038  LLC: 2048
rand_sets[9]: 2038
Assign rand_sets[10]: 701  LLC: 2048
rand_sets[10]: 701
Assign rand_sets[11]: 479  LLC: 2048
rand_sets[11]: 479
Assign rand_sets[12]: 892  LLC: 2048
rand_sets[12]: 892
Assign rand_sets[13]: 1820  LLC: 2048
rand_sets[13]: 1820
Assign rand_sets[14]: 1505  LLC: 2048
rand_sets[14]: 1505
Assign rand_sets[15]: 1159  LLC: 2048
rand_sets[15]: 1159
Assign rand_sets[16]: 513  LLC: 2048
rand_sets[16]: 513
Assign rand_sets[17]: 703  LLC: 2048
rand_sets[17]: 703
Assign rand_sets[18]: 561  LLC: 2048
rand_sets[18]: 561
Assign rand_sets[19]: 990  LLC: 2048
rand_sets[19]: 990
Assign rand_sets[20]: 342  LLC: 2048
rand_sets[20]: 342
Assign rand_sets[21]: 882  LLC: 2048
rand_sets[21]: 882
Assign rand_sets[22]: 15  LLC: 2048
rand_sets[22]: 15
Assign rand_sets[23]: 71  LLC: 2048
rand_sets[23]: 71
Assign rand_sets[24]: 1127  LLC: 2048
rand_sets[24]: 1127
Assign rand_sets[25]: 1382  LLC: 2048
rand_sets[25]: 1382
Assign rand_sets[26]: 647  LLC: 2048
rand_sets[26]: 647
Assign rand_sets[27]: 857  LLC: 2048
rand_sets[27]: 857
Assign rand_sets[28]: 1450  LLC: 2048
rand_sets[28]: 1450
Assign rand_sets[29]: 1160  LLC: 2048
rand_sets[29]: 1160
Assign rand_sets[30]: 1852  LLC: 2048
rand_sets[30]: 1852
Assign rand_sets[31]: 1881  LLC: 2048
rand_sets[31]: 1881
Assign rand_sets[32]: 1770  LLC: 2048
rand_sets[32]: 1770
Assign rand_sets[33]: 1622  LLC: 2048
rand_sets[33]: 1622
Assign rand_sets[34]: 275  LLC: 2048
rand_sets[34]: 275
Assign rand_sets[35]: 635  LLC: 2048
rand_sets[35]: 635
Assign rand_sets[36]: 466  LLC: 2048
rand_sets[36]: 466
Assign rand_sets[37]: 1413  LLC: 2048
rand_sets[37]: 1413
Assign rand_sets[38]: 417  LLC: 2048
rand_sets[38]: 417
Assign rand_sets[39]: 472  LLC: 2048
rand_sets[39]: 472
Assign rand_sets[40]: 1340  LLC: 2048
rand_sets[40]: 1340
Assign rand_sets[41]: 852  LLC: 2048
rand_sets[41]: 852
Assign rand_sets[42]: 1365  LLC: 2048
rand_sets[42]: 1365
Assign rand_sets[43]: 47  LLC: 2048
rand_sets[43]: 47
Assign rand_sets[44]: 823  LLC: 2048
rand_sets[44]: 823
Assign rand_sets[45]: 686  LLC: 2048
rand_sets[45]: 686
Assign rand_sets[46]: 1637  LLC: 2048
rand_sets[46]: 1637
Assign rand_sets[47]: 1115  LLC: 2048
rand_sets[47]: 1115
Assign rand_sets[48]: 986  LLC: 2048
rand_sets[48]: 986
Assign rand_sets[49]: 258  LLC: 2048
rand_sets[49]: 258
Assign rand_sets[50]: 633  LLC: 2048
rand_sets[50]: 633
Assign rand_sets[51]: 920  LLC: 2048
rand_sets[51]: 920
Assign rand_sets[52]: 204  LLC: 2048
rand_sets[52]: 204
Assign rand_sets[53]: 227  LLC: 2048
rand_sets[53]: 227
Assign rand_sets[54]: 1818  LLC: 2048
rand_sets[54]: 1818
Assign rand_sets[55]: 886  LLC: 2048
rand_sets[55]: 886
Assign rand_sets[56]: 1422  LLC: 2048
rand_sets[56]: 1422
Assign rand_sets[57]: 607  LLC: 2048
rand_sets[57]: 607
Assign rand_sets[58]: 217  LLC: 2048
rand_sets[58]: 217
Assign rand_sets[59]: 1945  LLC: 2048
rand_sets[59]: 1945
Assign rand_sets[60]: 143  LLC: 2048
rand_sets[60]: 143
Assign rand_sets[61]: 1311  LLC: 2048
rand_sets[61]: 1311
Assign rand_sets[62]: 319  LLC: 2048
rand_sets[62]: 319
Assign rand_sets[63]: 1846  LLC: 2048
rand_sets[63]: 1846
Heartbeat CPU 0 instructions: 10000001 cycles: 5584494 heartbeat IPC: 1.79067 cumulative IPC: 1.79067 (Simulation time: 0 hr 0 min 27 sec) 
Heartbeat CPU 0 instructions: 20000000 cycles: 11168798 heartbeat IPC: 1.79073 cumulative IPC: 1.7907 (Simulation time: 0 hr 0 min 55 sec) 
Heartbeat CPU 0 instructions: 30000002 cycles: 16745491 heartbeat IPC: 1.79318 cumulative IPC: 1.79153 (Simulation time: 0 hr 1 min 22 sec) 
Heartbeat CPU 0 instructions: 40000000 cycles: 22338026 heartbeat IPC: 1.7881 cumulative IPC: 1.79067 (Simulation time: 0 hr 1 min 50 sec) 
Heartbeat CPU 0 instructions: 50000000 cycles: 27923334 heartbeat IPC: 1.79041 cumulative IPC: 1.79062 (Simulation time: 0 hr 2 min 18 sec) 
Heartbeat CPU 0 instructions: 60000001 cycles: 33521355 heartbeat IPC: 1.78635 cumulative IPC: 1.7899 (Simulation time: 0 hr 2 min 46 sec) 
Heartbeat CPU 0 instructions: 70000001 cycles: 39100224 heartbeat IPC: 1.79248 cumulative IPC: 1.79027 (Simulation time: 0 hr 3 min 14 sec) 
Heartbeat CPU 0 instructions: 80000001 cycles: 44679153 heartbeat IPC: 1.79246 cumulative IPC: 1.79054 (Simulation time: 0 hr 3 min 42 sec) 
Heartbeat CPU 0 instructions: 90000001 cycles: 50266497 heartbeat IPC: 1.78976 cumulative IPC: 1.79046 (Simulation time: 0 hr 4 min 10 sec) 
Heartbeat CPU 0 instructions: 100000003 cycles: 55856116 heartbeat IPC: 1.78903 cumulative IPC: 1.79031 (Simulation time: 0 hr 4 min 37 sec) 

Warmup complete CPU 0 instructions: 100000003 cycles: 55856116 (Simulation time: 0 hr 4 min 37 sec) 

Heartbeat CPU 0 instructions: 110000000 cycles: 85801120 heartbeat IPC: 0.333945 cumulative IPC: 0.333945 (Simulation time: 0 hr 5 min 5 sec) 
Heartbeat CPU 0 instructions: 120000000 cycles: 115821860 heartbeat IPC: 0.333103 cumulative IPC: 0.333524 (Simulation time: 0 hr 5 min 34 sec) 
Heartbeat CPU 0 instructions: 130000000 cycles: 146289523 heartbeat IPC: 0.328217 cumulative IPC: 0.331736 (Simulation time: 0 hr 6 min 2 sec) 
Heartbeat CPU 0 instructions: 140000001 cycles: 176313182 heartbeat IPC: 0.333071 cumulative IPC: 0.332069 (Simulation time: 0 hr 6 min 30 sec) 
Heartbeat CPU 0 instructions: 150000002 cycles: 206519295 heartbeat IPC: 0.331059 cumulative IPC: 0.331866 (Simulation time: 0 hr 6 min 58 sec) 
Heartbeat CPU 0 instructions: 160000000 cycles: 236988767 heartbeat IPC: 0.328197 cumulative IPC: 0.331249 (Simulation time: 0 hr 7 min 26 sec) 
Heartbeat CPU 0 instructions: 170000000 cycles: 266747889 heartbeat IPC: 0.336031 cumulative IPC: 0.331924 (Simulation time: 0 hr 7 min 55 sec) 
Heartbeat CPU 0 instructions: 180000000 cycles: 296806405 heartbeat IPC: 0.332684 cumulative IPC: 0.332019 (Simulation time: 0 hr 8 min 23 sec) 
Heartbeat CPU 0 instructions: 190000003 cycles: 327060206 heartbeat IPC: 0.330537 cumulative IPC: 0.331853 (Simulation time: 0 hr 8 min 51 sec) 
Heartbeat CPU 0 instructions: 200000000 cycles: 356999916 heartbeat IPC: 0.334004 cumulative IPC: 0.332067 (Simulation time: 0 hr 9 min 19 sec) 
Heartbeat CPU 0 instructions: 210000000 cycles: 387136598 heartbeat IPC: 0.331822 cumulative IPC: 0.332045 (Simulation time: 0 hr 9 min 47 sec) 
Heartbeat CPU 0 instructions: 220000000 cycles: 417171358 heartbeat IPC: 0.332948 cumulative IPC: 0.33212 (Simulation time: 0 hr 10 min 15 sec) 
Heartbeat CPU 0 instructions: 230000002 cycles: 446844283 heartbeat IPC: 0.337008 cumulative IPC: 0.332491 (Simulation time: 0 hr 10 min 43 sec) 
Heartbeat CPU 0 instructions: 240000001 cycles: 476978082 heartbeat IPC: 0.331853 cumulative IPC: 0.332445 (Simulation time: 0 hr 11 min 12 sec) 
Heartbeat CPU 0 instructions: 250000000 cycles: 507092183 heartbeat IPC: 0.33207 cumulative IPC: 0.33242 (Simulation time: 0 hr 11 min 40 sec) 
Heartbeat CPU 0 instructions: 260000000 cycles: 537263910 heartbeat IPC: 0.331436 cumulative IPC: 0.332359 (Simulation time: 0 hr 12 min 8 sec) 
Heartbeat CPU 0 instructions: 270000000 cycles: 567655894 heartbeat IPC: 0.329034 cumulative IPC: 0.332161 (Simulation time: 0 hr 12 min 37 sec) 
Heartbeat CPU 0 instructions: 280000001 cycles: 597836580 heartbeat IPC: 0.331338 cumulative IPC: 0.332115 (Simulation time: 0 hr 13 min 5 sec) 
Heartbeat CPU 0 instructions: 290000000 cycles: 628277959 heartbeat IPC: 0.3285 cumulative IPC: 0.331923 (Simulation time: 0 hr 13 min 33 sec) 
Heartbeat CPU 0 instructions: 300000000 cycles: 658451337 heartbeat IPC: 0.331418 cumulative IPC: 0.331898 (Simulation time: 0 hr 14 min 1 sec) 
Heartbeat CPU 0 instructions: 310000000 cycles: 688204844 heartbeat IPC: 0.336095 cumulative IPC: 0.332095 (Simulation time: 0 hr 14 min 29 sec) 
Heartbeat CPU 0 instructions: 320000002 cycles: 718402019 heartbeat IPC: 0.331157 cumulative IPC: 0.332052 (Simulation time: 0 hr 14 min 57 sec) 
Heartbeat CPU 0 instructions: 330000000 cycles: 748608442 heartbeat IPC: 0.331055 cumulative IPC: 0.332009 (Simulation time: 0 hr 15 min 26 sec) 
Heartbeat CPU 0 instructions: 340000001 cycles: 779066779 heartbeat IPC: 0.328317 cumulative IPC: 0.331854 (Simulation time: 0 hr 15 min 54 sec) 
Heartbeat CPU 0 instructions: 350000000 cycles: 809500550 heartbeat IPC: 0.328582 cumulative IPC: 0.331721 (Simulation time: 0 hr 16 min 23 sec) 
Heartbeat CPU 0 instructions: 360000003 cycles: 839734793 heartbeat IPC: 0.330751 cumulative IPC: 0.331684 (Simulation time: 0 hr 16 min 51 sec) 
Heartbeat CPU 0 instructions: 370000000 cycles: 869763892 heartbeat IPC: 0.33301 cumulative IPC: 0.331733 (Simulation time: 0 hr 17 min 19 sec) 
Heartbeat CPU 0 instructions: 380000003 cycles: 899885467 heartbeat IPC: 0.331988 cumulative IPC: 0.331742 (Simulation time: 0 hr 17 min 47 sec) 
Heartbeat CPU 0 instructions: 390000003 cycles: 929546410 heartbeat IPC: 0.337144 cumulative IPC: 0.331925 (Simulation time: 0 hr 18 min 15 sec) 
Heartbeat CPU 0 instructions: 400000000 cycles: 960019085 heartbeat IPC: 0.328163 cumulative IPC: 0.331799 (Simulation time: 0 hr 18 min 44 sec) 
Heartbeat CPU 0 instructions: 410000001 cycles: 990244897 heartbeat IPC: 0.330843 cumulative IPC: 0.331768 (Simulation time: 0 hr 19 min 12 sec) 
Heartbeat CPU 0 instructions: 420000000 cycles: 1020279151 heartbeat IPC: 0.332953 cumulative IPC: 0.331805 (Simulation time: 0 hr 19 min 40 sec) 
Heartbeat CPU 0 instructions: 430000000 cycles: 1050570920 heartbeat IPC: 0.330123 cumulative IPC: 0.331753 (Simulation time: 0 hr 20 min 9 sec) 
Heartbeat CPU 0 instructions: 440000000 cycles: 1080403391 heartbeat IPC: 0.335205 cumulative IPC: 0.331854 (Simulation time: 0 hr 20 min 37 sec) 
Heartbeat CPU 0 instructions: 450000001 cycles: 1110590350 heartbeat IPC: 0.331269 cumulative IPC: 0.331837 (Simulation time: 0 hr 21 min 5 sec) 
Heartbeat CPU 0 instructions: 460000002 cycles: 1139947888 heartbeat IPC: 0.340628 cumulative IPC: 0.332075 (Simulation time: 0 hr 21 min 33 sec) 
Heartbeat CPU 0 instructions: 470000002 cycles: 1169977852 heartbeat IPC: 0.333001 cumulative IPC: 0.3321 (Simulation time: 0 hr 22 min 2 sec) 
Heartbeat CPU 0 instructions: 480000000 cycles: 1199999858 heartbeat IPC: 0.333089 cumulative IPC: 0.332126 (Simulation time: 0 hr 22 min 30 sec) 
Heartbeat CPU 0 instructions: 490000000 cycles: 1229850975 heartbeat IPC: 0.334996 cumulative IPC: 0.332199 (Simulation time: 0 hr 22 min 58 sec) 
Heartbeat CPU 0 instructions: 500000000 cycles: 1259551096 heartbeat IPC: 0.336699 cumulative IPC: 0.33231 (Simulation time: 0 hr 23 min 25 sec) 
Heartbeat CPU 0 instructions: 510000003 cycles: 1289428454 heartbeat IPC: 0.334702 cumulative IPC: 0.332368 (Simulation time: 0 hr 23 min 53 sec) 
Heartbeat CPU 0 instructions: 520000001 cycles: 1319136757 heartbeat IPC: 0.336606 cumulative IPC: 0.332468 (Simulation time: 0 hr 24 min 21 sec) 
Heartbeat CPU 0 instructions: 530000001 cycles: 1349276286 heartbeat IPC: 0.33179 cumulative IPC: 0.332452 (Simulation time: 0 hr 24 min 50 sec) 
Heartbeat CPU 0 instructions: 540000001 cycles: 1378615659 heartbeat IPC: 0.340839 cumulative IPC: 0.332638 (Simulation time: 0 hr 25 min 17 sec) 
Heartbeat CPU 0 instructions: 550000000 cycles: 1408905607 heartbeat IPC: 0.330142 cumulative IPC: 0.332582 (Simulation time: 0 hr 25 min 46 sec) 
Heartbeat CPU 0 instructions: 560000000 cycles: 1439244575 heartbeat IPC: 0.329609 cumulative IPC: 0.332517 (Simulation time: 0 hr 26 min 14 sec) 
Heartbeat CPU 0 instructions: 570000002 cycles: 1469015759 heartbeat IPC: 0.335895 cumulative IPC: 0.332588 (Simulation time: 0 hr 26 min 41 sec) 
Heartbeat CPU 0 instructions: 580000000 cycles: 1498680882 heartbeat IPC: 0.337096 cumulative IPC: 0.332681 (Simulation time: 0 hr 27 min 11 sec) 
Heartbeat CPU 0 instructions: 590000002 cycles: 1529043217 heartbeat IPC: 0.329356 cumulative IPC: 0.332612 (Simulation time: 0 hr 27 min 40 sec) 
Heartbeat CPU 0 instructions: 600000000 cycles: 1558915745 heartbeat IPC: 0.334756 cumulative IPC: 0.332655 (Simulation time: 0 hr 28 min 9 sec) 
Heartbeat CPU 0 instructions: 610000000 cycles: 1588973543 heartbeat IPC: 0.332692 cumulative IPC: 0.332656 (Simulation time: 0 hr 28 min 38 sec) 
Heartbeat CPU 0 instructions: 620000000 cycles: 1619782404 heartbeat IPC: 0.324582 cumulative IPC: 0.332496 (Simulation time: 0 hr 29 min 7 sec) 
Heartbeat CPU 0 instructions: 630000001 cycles: 1649818873 heartbeat IPC: 0.332929 cumulative IPC: 0.332505 (Simulation time: 0 hr 29 min 36 sec) 
Heartbeat CPU 0 instructions: 640000003 cycles: 1679903148 heartbeat IPC: 0.3324 cumulative IPC: 0.332503 (Simulation time: 0 hr 30 min 5 sec) 
Heartbeat CPU 0 instructions: 650000000 cycles: 1710165331 heartbeat IPC: 0.330445 cumulative IPC: 0.332465 (Simulation time: 0 hr 30 min 35 sec) 
Heartbeat CPU 0 instructions: 660000000 cycles: 1740148665 heartbeat IPC: 0.333519 cumulative IPC: 0.332484 (Simulation time: 0 hr 31 min 4 sec) 
Heartbeat CPU 0 instructions: 670000000 cycles: 1770346158 heartbeat IPC: 0.331153 cumulative IPC: 0.33246 (Simulation time: 0 hr 31 min 33 sec) 
Heartbeat CPU 0 instructions: 680000001 cycles: 1800255337 heartbeat IPC: 0.334346 cumulative IPC: 0.332493 (Simulation time: 0 hr 32 min 2 sec) 
Heartbeat CPU 0 instructions: 690000001 cycles: 1830625951 heartbeat IPC: 0.329266 cumulative IPC: 0.332437 (Simulation time: 0 hr 32 min 31 sec) 
Heartbeat CPU 0 instructions: 700000000 cycles: 1860540682 heartbeat IPC: 0.334283 cumulative IPC: 0.332468 (Simulation time: 0 hr 33 min 0 sec) 
Heartbeat CPU 0 instructions: 710000001 cycles: 1890423675 heartbeat IPC: 0.334639 cumulative IPC: 0.332503 (Simulation time: 0 hr 33 min 29 sec) 
Heartbeat CPU 0 instructions: 720000001 cycles: 1920572057 heartbeat IPC: 0.331693 cumulative IPC: 0.33249 (Simulation time: 0 hr 33 min 58 sec) 
Heartbeat CPU 0 instructions: 730000001 cycles: 1950868742 heartbeat IPC: 0.330069 cumulative IPC: 0.332452 (Simulation time: 0 hr 34 min 27 sec) 
Heartbeat CPU 0 instructions: 740000001 cycles: 1981179002 heartbeat IPC: 0.329921 cumulative IPC: 0.332412 (Simulation time: 0 hr 34 min 56 sec) 
Heartbeat CPU 0 instructions: 750000002 cycles: 2011515617 heartbeat IPC: 0.329635 cumulative IPC: 0.332369 (Simulation time: 0 hr 35 min 25 sec) 
Heartbeat CPU 0 instructions: 760000002 cycles: 2041446569 heartbeat IPC: 0.334102 cumulative IPC: 0.332395 (Simulation time: 0 hr 35 min 54 sec) 
Heartbeat CPU 0 instructions: 770000000 cycles: 2072301752 heartbeat IPC: 0.324095 cumulative IPC: 0.332268 (Simulation time: 0 hr 36 min 23 sec) 
Heartbeat CPU 0 instructions: 780000000 cycles: 2102635333 heartbeat IPC: 0.329668 cumulative IPC: 0.332229 (Simulation time: 0 hr 36 min 52 sec) 
Heartbeat CPU 0 instructions: 790000001 cycles: 2134106660 heartbeat IPC: 0.31775 cumulative IPC: 0.33201 (Simulation time: 0 hr 37 min 22 sec) 
Heartbeat CPU 0 instructions: 800000002 cycles: 2164246708 heartbeat IPC: 0.331785 cumulative IPC: 0.332007 (Simulation time: 0 hr 37 min 51 sec) 
Heartbeat CPU 0 instructions: 810000001 cycles: 2194857231 heartbeat IPC: 0.326685 cumulative IPC: 0.331931 (Simulation time: 0 hr 38 min 20 sec) 
Heartbeat CPU 0 instructions: 820000003 cycles: 2225099407 heartbeat IPC: 0.330664 cumulative IPC: 0.331913 (Simulation time: 0 hr 38 min 49 sec) 
Heartbeat CPU 0 instructions: 830000000 cycles: 2256047947 heartbeat IPC: 0.323117 cumulative IPC: 0.331789 (Simulation time: 0 hr 39 min 18 sec) 
Heartbeat CPU 0 instructions: 840000003 cycles: 2286893623 heartbeat IPC: 0.324195 cumulative IPC: 0.331684 (Simulation time: 0 hr 39 min 47 sec) 
Heartbeat CPU 0 instructions: 850000000 cycles: 2317517119 heartbeat IPC: 0.326547 cumulative IPC: 0.331615 (Simulation time: 0 hr 40 min 17 sec) 
Heartbeat CPU 0 instructions: 860000000 cycles: 2348244108 heartbeat IPC: 0.325447 cumulative IPC: 0.331532 (Simulation time: 0 hr 40 min 46 sec) 
Heartbeat CPU 0 instructions: 870000001 cycles: 2379438170 heartbeat IPC: 0.320574 cumulative IPC: 0.331385 (Simulation time: 0 hr 41 min 15 sec) 
Heartbeat CPU 0 instructions: 880000000 cycles: 2409506621 heartbeat IPC: 0.332574 cumulative IPC: 0.3314 (Simulation time: 0 hr 41 min 44 sec) 
Heartbeat CPU 0 instructions: 890000000 cycles: 2439901827 heartbeat IPC: 0.328999 cumulative IPC: 0.331369 (Simulation time: 0 hr 42 min 13 sec) 
Heartbeat CPU 0 instructions: 900000001 cycles: 2470123703 heartbeat IPC: 0.330886 cumulative IPC: 0.331363 (Simulation time: 0 hr 42 min 43 sec) 
Heartbeat CPU 0 instructions: 910000000 cycles: 2500528183 heartbeat IPC: 0.328899 cumulative IPC: 0.331333 (Simulation time: 0 hr 43 min 12 sec) 
Heartbeat CPU 0 instructions: 920000001 cycles: 2531019335 heartbeat IPC: 0.327964 cumulative IPC: 0.331291 (Simulation time: 0 hr 43 min 41 sec) 
Heartbeat CPU 0 instructions: 930000003 cycles: 2561460165 heartbeat IPC: 0.328506 cumulative IPC: 0.331257 (Simulation time: 0 hr 44 min 10 sec) 
Heartbeat CPU 0 instructions: 940000002 cycles: 2591355034 heartbeat IPC: 0.334506 cumulative IPC: 0.331296 (Simulation time: 0 hr 44 min 39 sec) 
Heartbeat CPU 0 instructions: 950000000 cycles: 2621636738 heartbeat IPC: 0.330232 cumulative IPC: 0.331283 (Simulation time: 0 hr 45 min 8 sec) 
Heartbeat CPU 0 instructions: 960000003 cycles: 2651666291 heartbeat IPC: 0.333005 cumulative IPC: 0.331303 (Simulation time: 0 hr 45 min 37 sec) 
Heartbeat CPU 0 instructions: 970000000 cycles: 2681896308 heartbeat IPC: 0.330797 cumulative IPC: 0.331297 (Simulation time: 0 hr 46 min 6 sec) 
Heartbeat CPU 0 instructions: 980000000 cycles: 2712546333 heartbeat IPC: 0.326264 cumulative IPC: 0.331239 (Simulation time: 0 hr 46 min 36 sec) 
Heartbeat CPU 0 instructions: 990000000 cycles: 2742454093 heartbeat IPC: 0.334361 cumulative IPC: 0.331274 (Simulation time: 0 hr 47 min 5 sec) 
Heartbeat CPU 0 instructions: 1000000000 cycles: 2772438476 heartbeat IPC: 0.333507 cumulative IPC: 0.331299 (Simulation time: 0 hr 47 min 34 sec) 
Heartbeat CPU 0 instructions: 1010000001 cycles: 2802632984 heartbeat IPC: 0.331186 cumulative IPC: 0.331297 (Simulation time: 0 hr 48 min 3 sec) 
Heartbeat CPU 0 instructions: 1020000001 cycles: 2833045428 heartbeat IPC: 0.328813 cumulative IPC: 0.33127 (Simulation time: 0 hr 48 min 32 sec) 
Heartbeat CPU 0 instructions: 1030000002 cycles: 2864261866 heartbeat IPC: 0.320344 cumulative IPC: 0.331149 (Simulation time: 0 hr 49 min 2 sec) 
Heartbeat CPU 0 instructions: 1040000000 cycles: 2894717338 heartbeat IPC: 0.328348 cumulative IPC: 0.331119 (Simulation time: 0 hr 49 min 31 sec) 
Heartbeat CPU 0 instructions: 1050000003 cycles: 2925082106 heartbeat IPC: 0.329329 cumulative IPC: 0.3311 (Simulation time: 0 hr 50 min 0 sec) 
Heartbeat CPU 0 instructions: 1060000002 cycles: 2955733155 heartbeat IPC: 0.326253 cumulative IPC: 0.331049 (Simulation time: 0 hr 50 min 29 sec) 
Heartbeat CPU 0 instructions: 1070000002 cycles: 2986728182 heartbeat IPC: 0.322632 cumulative IPC: 0.33096 (Simulation time: 0 hr 50 min 58 sec) 
Heartbeat CPU 0 instructions: 1080000000 cycles: 3017097447 heartbeat IPC: 0.32928 cumulative IPC: 0.330942 (Simulation time: 0 hr 51 min 27 sec) 
Heartbeat CPU 0 instructions: 1090000003 cycles: 3047184059 heartbeat IPC: 0.332374 cumulative IPC: 0.330957 (Simulation time: 0 hr 51 min 57 sec) 
Heartbeat CPU 0 instructions: 1100000000 cycles: 3077347258 heartbeat IPC: 0.33153 cumulative IPC: 0.330962 (Simulation time: 0 hr 52 min 26 sec) 
Finished CPU 0 instructions: 1000000002 cycles: 3021491151 cumulative IPC: 0.330962 (Simulation time: 0 hr 52 min 26 sec) 

ChampSim completed all CPUs

Region of Interest Statistics

CPU 0 cumulative IPC: 0.330962 instructions: 1000000002 cycles: 3021491151
L1D TOTAL     ACCESS:  424532290  HIT:  404522013  MISS:   20010277
L1D LOAD      ACCESS:  245793572  HIT:  228296245  MISS:   17497327
L1D RFO       ACCESS:  178738718  HIT:  176225768  MISS:    2512950
L1D PREFETCH  ACCESS:          0  HIT:          0  MISS:          0
L1D WRITEBACK ACCESS:          0  HIT:          0  MISS:          0
L1D PREFETCH  REQUESTED:          0  ISSUED:          0  USEFUL:          0  USELESS:          0
L1D AVERAGE MISS LATENCY: 129.039 cycles
L1I TOTAL     ACCESS:  177935539  HIT:  177548627  MISS:     386912
L1I LOAD      ACCESS:  177935539  HIT:  177548627  MISS:     386912
L1I RFO       ACCESS:          0  HIT:          0  MISS:          0
L1I PREFETCH  ACCESS:          0  HIT:          0  MISS:          0
L1I WRITEBACK ACCESS:          0  HIT:          0  MISS:          0
L1I PREFETCH  REQUESTED:          0  ISSUED:          0  USEFUL:          0  USELESS:          0
L1I AVERAGE MISS LATENCY: 32.7971 cycles
L2C TOTAL     ACCESS:   30062421  HIT:   15597089  MISS:   14465332
L2C LOAD      ACCESS:   17883448  HIT:    5449877  MISS:   12433571
L2C RFO       ACCESS:    2512896  HIT:     511385  MISS:    2001511
L2C PREFETCH  ACCESS:          0  HIT:          0  MISS:          0
L2C WRITEBACK ACCESS:    9666077  HIT:    9635827  MISS:      30250
L2C PREFETCH  REQUESTED:          0  ISSUED:          0  USEFUL:          0  USELESS:          0
L2C AVERAGE MISS LATENCY: 157.689 cycles
LLC TOTAL     ACCESS:   21677509  HIT:   12401526  MISS:    9275983
LLC LOAD      ACCESS:   12433526  HIT:    4146316  MISS:    8287210
LLC RFO       ACCESS:    2001503  HIT:    1065462  MISS:     936041
LLC PREFETCH  ACCESS:          0  HIT:          0  MISS:          0
LLC WRITEBACK ACCESS:    7242480  HIT:    7189748  MISS:      52732
LLC PREFETCH  REQUESTED:          0  ISSUED:          0  USEFUL:          0  USELESS:          0
LLC AVERAGE MISS LATENCY: 178.378 cycles
Major fault: 0 Minor fault: 51779

DRAM Statistics
 CHANNEL 0
 RQ ROW_BUFFER_HIT:     714579  ROW_BUFFER_MISS:    8508657
 DBUS_CONGESTED:    2430045
 WQ ROW_BUFFER_HIT:     942226  ROW_BUFFER_MISS:    3443245  FULL:          0

 AVG_CONGESTED_CYCLE: 6

CPU 0 Branch Prediction Accuracy: 95.7698% MPKI: 8.79501 Average ROB Occupancy at Mispredict: 76.9211

Branch types
NOT_BRANCH: 792090406 79.209%
BRANCH_DIRECT_JUMP: 11386471 1.13865%
BRANCH_INDIRECT: 3364042 0.336404%
BRANCH_CONDITIONAL: 133667621 13.3668%
BRANCH_DIRECT_CALL: 17787880 1.77879%
BRANCH_INDIRECT_CALL: 11957676 1.19577%
BRANCH_RETURN: 29745554 2.97456%
BRANCH_OTHER: 0 0%

