
*** ChampSim Multicore Out-of-Order Simulator ***

Warmup Instructions: 100000000
Simulation Instructions: 1000000000
Number of CPUs: 1
LLC sets: 2048
LLC ways: 16
Off-chip DRAM Size: 4096 MB Channels: 1 Width: 64-bit Data Rate: 3200 MT/s

CPU 0 runs /scratch/user/kevin.weston/dpc3-traces/620.champsimtrace.xz
CPU 0 Bimodal branch predictor
Per-line RRPV Initialized
PRRIP State Initialized
Assign SAMPLER_SET[0]: 454  LLC: 2048
SAMPLER_SET[0]: 454
Assign SAMPLER_SET[1]: 1662  LLC: 2048
SAMPLER_SET[1]: 1662
Assign SAMPLER_SET[2]: 1921  LLC: 2048
SAMPLER_SET[2]: 1921
Assign SAMPLER_SET[3]: 1131  LLC: 2048
SAMPLER_SET[3]: 1131
Assign SAMPLER_SET[4]: 331  LLC: 2048
SAMPLER_SET[4]: 331
Assign SAMPLER_SET[5]: 1531  LLC: 2048
SAMPLER_SET[5]: 1531
Assign SAMPLER_SET[6]: 482  LLC: 2048
SAMPLER_SET[6]: 482
Assign SAMPLER_SET[7]: 1275  LLC: 2048
SAMPLER_SET[7]: 1275
Assign SAMPLER_SET[8]: 1876  LLC: 2048
SAMPLER_SET[8]: 1876
Assign SAMPLER_SET[9]: 2038  LLC: 2048
SAMPLER_SET[9]: 2038
Assign SAMPLER_SET[10]: 701  LLC: 2048
SAMPLER_SET[10]: 701
Assign SAMPLER_SET[11]: 479  LLC: 2048
SAMPLER_SET[11]: 479
Assign SAMPLER_SET[12]: 892  LLC: 2048
SAMPLER_SET[12]: 892
Assign SAMPLER_SET[13]: 1820  LLC: 2048
SAMPLER_SET[13]: 1820
Assign SAMPLER_SET[14]: 1505  LLC: 2048
SAMPLER_SET[14]: 1505
Assign SAMPLER_SET[15]: 1159  LLC: 2048
SAMPLER_SET[15]: 1159
Assign SAMPLER_SET[16]: 513  LLC: 2048
SAMPLER_SET[16]: 513
Assign SAMPLER_SET[17]: 703  LLC: 2048
SAMPLER_SET[17]: 703
Assign SAMPLER_SET[18]: 561  LLC: 2048
SAMPLER_SET[18]: 561
Assign SAMPLER_SET[19]: 990  LLC: 2048
SAMPLER_SET[19]: 990
Assign SAMPLER_SET[20]: 342  LLC: 2048
SAMPLER_SET[20]: 342
Assign SAMPLER_SET[21]: 882  LLC: 2048
SAMPLER_SET[21]: 882
Assign SAMPLER_SET[22]: 15  LLC: 2048
SAMPLER_SET[22]: 15
Assign SAMPLER_SET[23]: 71  LLC: 2048
SAMPLER_SET[23]: 71
Assign SAMPLER_SET[24]: 1127  LLC: 2048
SAMPLER_SET[24]: 1127
Assign SAMPLER_SET[25]: 1382  LLC: 2048
SAMPLER_SET[25]: 1382
Assign SAMPLER_SET[26]: 647  LLC: 2048
SAMPLER_SET[26]: 647
Assign SAMPLER_SET[27]: 857  LLC: 2048
SAMPLER_SET[27]: 857
Assign SAMPLER_SET[28]: 1450  LLC: 2048
SAMPLER_SET[28]: 1450
Assign SAMPLER_SET[29]: 1160  LLC: 2048
SAMPLER_SET[29]: 1160
Assign SAMPLER_SET[30]: 1852  LLC: 2048
SAMPLER_SET[30]: 1852
Assign SAMPLER_SET[31]: 1881  LLC: 2048
SAMPLER_SET[31]: 1881
Assign SAMPLER_SET[32]: 1770  LLC: 2048
SAMPLER_SET[32]: 1770
Assign SAMPLER_SET[33]: 1622  LLC: 2048
SAMPLER_SET[33]: 1622
Assign SAMPLER_SET[34]: 275  LLC: 2048
SAMPLER_SET[34]: 275
Assign SAMPLER_SET[35]: 635  LLC: 2048
SAMPLER_SET[35]: 635
Assign SAMPLER_SET[36]: 466  LLC: 2048
SAMPLER_SET[36]: 466
Assign SAMPLER_SET[37]: 1413  LLC: 2048
SAMPLER_SET[37]: 1413
Assign SAMPLER_SET[38]: 417  LLC: 2048
SAMPLER_SET[38]: 417
Assign SAMPLER_SET[39]: 472  LLC: 2048
SAMPLER_SET[39]: 472
Assign SAMPLER_SET[40]: 1340  LLC: 2048
SAMPLER_SET[40]: 1340
Assign SAMPLER_SET[41]: 852  LLC: 2048
SAMPLER_SET[41]: 852
Assign SAMPLER_SET[42]: 1365  LLC: 2048
SAMPLER_SET[42]: 1365
Assign SAMPLER_SET[43]: 47  LLC: 2048
SAMPLER_SET[43]: 47
Assign SAMPLER_SET[44]: 823  LLC: 2048
SAMPLER_SET[44]: 823
Assign SAMPLER_SET[45]: 686  LLC: 2048
SAMPLER_SET[45]: 686
Assign SAMPLER_SET[46]: 1637  LLC: 2048
SAMPLER_SET[46]: 1637
Assign SAMPLER_SET[47]: 1115  LLC: 2048
SAMPLER_SET[47]: 1115
Assign SAMPLER_SET[48]: 986  LLC: 2048
SAMPLER_SET[48]: 986
Assign SAMPLER_SET[49]: 258  LLC: 2048
SAMPLER_SET[49]: 258
Assign SAMPLER_SET[50]: 633  LLC: 2048
SAMPLER_SET[50]: 633
Assign SAMPLER_SET[51]: 920  LLC: 2048
SAMPLER_SET[51]: 920
Assign SAMPLER_SET[52]: 204  LLC: 2048
SAMPLER_SET[52]: 204
Assign SAMPLER_SET[53]: 227  LLC: 2048
SAMPLER_SET[53]: 227
Assign SAMPLER_SET[54]: 1818  LLC: 2048
SAMPLER_SET[54]: 1818
Assign SAMPLER_SET[55]: 886  LLC: 2048
SAMPLER_SET[55]: 886
Assign SAMPLER_SET[56]: 1422  LLC: 2048
SAMPLER_SET[56]: 1422
Assign SAMPLER_SET[57]: 607  LLC: 2048
SAMPLER_SET[57]: 607
Assign SAMPLER_SET[58]: 217  LLC: 2048
SAMPLER_SET[58]: 217
Assign SAMPLER_SET[59]: 1945  LLC: 2048
SAMPLER_SET[59]: 1945
Assign SAMPLER_SET[60]: 143  LLC: 2048
SAMPLER_SET[60]: 143
Assign SAMPLER_SET[61]: 1311  LLC: 2048
SAMPLER_SET[61]: 1311
Assign SAMPLER_SET[62]: 319  LLC: 2048
SAMPLER_SET[62]: 319
Assign SAMPLER_SET[63]: 1846  LLC: 2048
SAMPLER_SET[63]: 1846
Heartbeat CPU 0 instructions: 10000001 cycles: 5584640 heartbeat IPC: 1.79063 cumulative IPC: 1.79063 (Simulation time: 0 hr 0 min 28 sec) 
Heartbeat CPU 0 instructions: 20000000 cycles: 11169327 heartbeat IPC: 1.79061 cumulative IPC: 1.79062 (Simulation time: 0 hr 0 min 56 sec) 
Heartbeat CPU 0 instructions: 30000002 cycles: 16746283 heartbeat IPC: 1.79309 cumulative IPC: 1.79144 (Simulation time: 0 hr 1 min 24 sec) 
Heartbeat CPU 0 instructions: 40000000 cycles: 22339194 heartbeat IPC: 1.78798 cumulative IPC: 1.79057 (Simulation time: 0 hr 1 min 53 sec) 
Heartbeat CPU 0 instructions: 50000000 cycles: 27924724 heartbeat IPC: 1.79034 cumulative IPC: 1.79053 (Simulation time: 0 hr 2 min 21 sec) 
Heartbeat CPU 0 instructions: 60000001 cycles: 33523171 heartbeat IPC: 1.78621 cumulative IPC: 1.78981 (Simulation time: 0 hr 2 min 49 sec) 
Heartbeat CPU 0 instructions: 70000001 cycles: 39102484 heartbeat IPC: 1.79234 cumulative IPC: 1.79017 (Simulation time: 0 hr 3 min 17 sec) 
Heartbeat CPU 0 instructions: 80000001 cycles: 44681616 heartbeat IPC: 1.79239 cumulative IPC: 1.79045 (Simulation time: 0 hr 3 min 46 sec) 
Heartbeat CPU 0 instructions: 90000001 cycles: 50269179 heartbeat IPC: 1.78969 cumulative IPC: 1.79036 (Simulation time: 0 hr 4 min 14 sec) 
Heartbeat CPU 0 instructions: 100000003 cycles: 55859148 heartbeat IPC: 1.78892 cumulative IPC: 1.79022 (Simulation time: 0 hr 4 min 42 sec) 

Warmup complete CPU 0 instructions: 100000003 cycles: 55859148 (Simulation time: 0 hr 4 min 42 sec) 

Heartbeat CPU 0 instructions: 110000000 cycles: 86991734 heartbeat IPC: 0.321207 cumulative IPC: 0.321207 (Simulation time: 0 hr 5 min 12 sec) 
Heartbeat CPU 0 instructions: 120000000 cycles: 117921962 heartbeat IPC: 0.323308 cumulative IPC: 0.322254 (Simulation time: 0 hr 5 min 41 sec) 
Heartbeat CPU 0 instructions: 130000000 cycles: 149208845 heartbeat IPC: 0.319623 cumulative IPC: 0.321372 (Simulation time: 0 hr 6 min 10 sec) 
Heartbeat CPU 0 instructions: 140000001 cycles: 180302664 heartbeat IPC: 0.321607 cumulative IPC: 0.321431 (Simulation time: 0 hr 6 min 40 sec) 
Heartbeat CPU 0 instructions: 150000002 cycles: 211311373 heartbeat IPC: 0.32249 cumulative IPC: 0.321642 (Simulation time: 0 hr 7 min 10 sec) 
Heartbeat CPU 0 instructions: 160000000 cycles: 243027213 heartbeat IPC: 0.3153 cumulative IPC: 0.320567 (Simulation time: 0 hr 7 min 39 sec) 
Heartbeat CPU 0 instructions: 170000000 cycles: 274049215 heartbeat IPC: 0.322352 cumulative IPC: 0.320821 (Simulation time: 0 hr 8 min 9 sec) 
Heartbeat CPU 0 instructions: 180000000 cycles: 305195260 heartbeat IPC: 0.321068 cumulative IPC: 0.320852 (Simulation time: 0 hr 8 min 39 sec) 
Heartbeat CPU 0 instructions: 190000003 cycles: 336306483 heartbeat IPC: 0.321428 cumulative IPC: 0.320916 (Simulation time: 0 hr 9 min 8 sec) 
Heartbeat CPU 0 instructions: 200000000 cycles: 367081024 heartbeat IPC: 0.324944 cumulative IPC: 0.321314 (Simulation time: 0 hr 9 min 37 sec) 
Heartbeat CPU 0 instructions: 210000002 cycles: 398224951 heartbeat IPC: 0.32109 cumulative IPC: 0.321294 (Simulation time: 0 hr 10 min 7 sec) 
Heartbeat CPU 0 instructions: 220000000 cycles: 429411540 heartbeat IPC: 0.320651 cumulative IPC: 0.32124 (Simulation time: 0 hr 10 min 37 sec) 
Heartbeat CPU 0 instructions: 230000002 cycles: 459976258 heartbeat IPC: 0.327175 cumulative IPC: 0.321689 (Simulation time: 0 hr 11 min 6 sec) 
Heartbeat CPU 0 instructions: 240000001 cycles: 491119793 heartbeat IPC: 0.321094 cumulative IPC: 0.321646 (Simulation time: 0 hr 11 min 36 sec) 
Heartbeat CPU 0 instructions: 250000000 cycles: 522065103 heartbeat IPC: 0.323151 cumulative IPC: 0.321746 (Simulation time: 0 hr 12 min 5 sec) 
Heartbeat CPU 0 instructions: 260000000 cycles: 553146645 heartbeat IPC: 0.321734 cumulative IPC: 0.321745 (Simulation time: 0 hr 12 min 35 sec) 
Heartbeat CPU 0 instructions: 270000002 cycles: 584704675 heartbeat IPC: 0.316877 cumulative IPC: 0.321455 (Simulation time: 0 hr 13 min 4 sec) 
Heartbeat CPU 0 instructions: 280000001 cycles: 616183558 heartbeat IPC: 0.317673 cumulative IPC: 0.321242 (Simulation time: 0 hr 13 min 34 sec) 
Heartbeat CPU 0 instructions: 290000000 cycles: 647636914 heartbeat IPC: 0.317931 cumulative IPC: 0.321066 (Simulation time: 0 hr 14 min 4 sec) 
Heartbeat CPU 0 instructions: 300000000 cycles: 678656750 heartbeat IPC: 0.322374 cumulative IPC: 0.321132 (Simulation time: 0 hr 14 min 33 sec) 
Heartbeat CPU 0 instructions: 310000000 cycles: 709430207 heartbeat IPC: 0.324955 cumulative IPC: 0.321312 (Simulation time: 0 hr 15 min 2 sec) 
Heartbeat CPU 0 instructions: 320000002 cycles: 740589587 heartbeat IPC: 0.320931 cumulative IPC: 0.321294 (Simulation time: 0 hr 15 min 32 sec) 
Heartbeat CPU 0 instructions: 330000000 cycles: 772011287 heartbeat IPC: 0.318251 cumulative IPC: 0.321161 (Simulation time: 0 hr 16 min 2 sec) 
Heartbeat CPU 0 instructions: 340000001 cycles: 803517637 heartbeat IPC: 0.317396 cumulative IPC: 0.321002 (Simulation time: 0 hr 16 min 31 sec) 
Heartbeat CPU 0 instructions: 350000000 cycles: 834857639 heartbeat IPC: 0.319081 cumulative IPC: 0.320925 (Simulation time: 0 hr 17 min 1 sec) 
Heartbeat CPU 0 instructions: 360000003 cycles: 866202980 heartbeat IPC: 0.319027 cumulative IPC: 0.320851 (Simulation time: 0 hr 17 min 31 sec) 
Heartbeat CPU 0 instructions: 370000000 cycles: 897075740 heartbeat IPC: 0.32391 cumulative IPC: 0.320964 (Simulation time: 0 hr 18 min 0 sec) 
Heartbeat CPU 0 instructions: 380000003 cycles: 928127556 heartbeat IPC: 0.322042 cumulative IPC: 0.321002 (Simulation time: 0 hr 18 min 29 sec) 
Heartbeat CPU 0 instructions: 390000003 cycles: 958848439 heartbeat IPC: 0.325511 cumulative IPC: 0.321156 (Simulation time: 0 hr 18 min 58 sec) 
Heartbeat CPU 0 instructions: 400000000 cycles: 990210660 heartbeat IPC: 0.318855 cumulative IPC: 0.321078 (Simulation time: 0 hr 19 min 28 sec) 
Heartbeat CPU 0 instructions: 410000001 cycles: 1021594450 heartbeat IPC: 0.318636 cumulative IPC: 0.320999 (Simulation time: 0 hr 19 min 58 sec) 
Heartbeat CPU 0 instructions: 420000000 cycles: 1052610067 heartbeat IPC: 0.322418 cumulative IPC: 0.321043 (Simulation time: 0 hr 20 min 27 sec) 
Heartbeat CPU 0 instructions: 430000000 cycles: 1083943977 heartbeat IPC: 0.319143 cumulative IPC: 0.320985 (Simulation time: 0 hr 20 min 57 sec) 
Heartbeat CPU 0 instructions: 440000000 cycles: 1114635654 heartbeat IPC: 0.325821 cumulative IPC: 0.321125 (Simulation time: 0 hr 21 min 27 sec) 
Heartbeat CPU 0 instructions: 450000001 cycles: 1145842190 heartbeat IPC: 0.320446 cumulative IPC: 0.321106 (Simulation time: 0 hr 21 min 57 sec) 
Heartbeat CPU 0 instructions: 460000002 cycles: 1176157452 heartbeat IPC: 0.329867 cumulative IPC: 0.321343 (Simulation time: 0 hr 22 min 27 sec) 
Heartbeat CPU 0 instructions: 470000002 cycles: 1207247818 heartbeat IPC: 0.321643 cumulative IPC: 0.321351 (Simulation time: 0 hr 22 min 56 sec) 
Heartbeat CPU 0 instructions: 480000000 cycles: 1238468279 heartbeat IPC: 0.320303 cumulative IPC: 0.321323 (Simulation time: 0 hr 23 min 27 sec) 
Heartbeat CPU 0 instructions: 490000000 cycles: 1269391059 heartbeat IPC: 0.323386 cumulative IPC: 0.321376 (Simulation time: 0 hr 23 min 58 sec) 
Heartbeat CPU 0 instructions: 500000000 cycles: 1299940075 heartbeat IPC: 0.327343 cumulative IPC: 0.321523 (Simulation time: 0 hr 24 min 28 sec) 
Heartbeat CPU 0 instructions: 510000003 cycles: 1330861612 heartbeat IPC: 0.323399 cumulative IPC: 0.321568 (Simulation time: 0 hr 24 min 59 sec) 
Heartbeat CPU 0 instructions: 520000001 cycles: 1361487680 heartbeat IPC: 0.326519 cumulative IPC: 0.321684 (Simulation time: 0 hr 25 min 30 sec) 
Heartbeat CPU 0 instructions: 530000001 cycles: 1392711225 heartbeat IPC: 0.320271 cumulative IPC: 0.321651 (Simulation time: 0 hr 26 min 2 sec) 
Heartbeat CPU 0 instructions: 540000001 cycles: 1423166736 heartbeat IPC: 0.328348 cumulative IPC: 0.3218 (Simulation time: 0 hr 26 min 33 sec) 
Heartbeat CPU 0 instructions: 550000000 cycles: 1454382325 heartbeat IPC: 0.320353 cumulative IPC: 0.321768 (Simulation time: 0 hr 27 min 5 sec) 
Heartbeat CPU 0 instructions: 560000000 cycles: 1485905260 heartbeat IPC: 0.317229 cumulative IPC: 0.321668 (Simulation time: 0 hr 27 min 37 sec) 
Heartbeat CPU 0 instructions: 570000002 cycles: 1516577558 heartbeat IPC: 0.326027 cumulative IPC: 0.321759 (Simulation time: 0 hr 28 min 7 sec) 
Heartbeat CPU 0 instructions: 580000000 cycles: 1547240798 heartbeat IPC: 0.326123 cumulative IPC: 0.321849 (Simulation time: 0 hr 28 min 37 sec) 
Heartbeat CPU 0 instructions: 590000002 cycles: 1578603848 heartbeat IPC: 0.318847 cumulative IPC: 0.321787 (Simulation time: 0 hr 29 min 8 sec) 
Heartbeat CPU 0 instructions: 600000000 cycles: 1609734812 heartbeat IPC: 0.321224 cumulative IPC: 0.321776 (Simulation time: 0 hr 29 min 38 sec) 
Heartbeat CPU 0 instructions: 610000000 cycles: 1640655287 heartbeat IPC: 0.32341 cumulative IPC: 0.321808 (Simulation time: 0 hr 30 min 8 sec) 
Heartbeat CPU 0 instructions: 620000000 cycles: 1672396823 heartbeat IPC: 0.315045 cumulative IPC: 0.321675 (Simulation time: 0 hr 30 min 39 sec) 
Heartbeat CPU 0 instructions: 630000001 cycles: 1703429583 heartbeat IPC: 0.32224 cumulative IPC: 0.321686 (Simulation time: 0 hr 31 min 10 sec) 
Heartbeat CPU 0 instructions: 640000003 cycles: 1734265026 heartbeat IPC: 0.324302 cumulative IPC: 0.321734 (Simulation time: 0 hr 31 min 40 sec) 
Heartbeat CPU 0 instructions: 650000001 cycles: 1765585113 heartbeat IPC: 0.319284 cumulative IPC: 0.321689 (Simulation time: 0 hr 32 min 11 sec) 
Heartbeat CPU 0 instructions: 660000000 cycles: 1796537636 heartbeat IPC: 0.323075 cumulative IPC: 0.321714 (Simulation time: 0 hr 32 min 43 sec) 
Heartbeat CPU 0 instructions: 670000000 cycles: 1827780244 heartbeat IPC: 0.320076 cumulative IPC: 0.321685 (Simulation time: 0 hr 33 min 13 sec) 
Heartbeat CPU 0 instructions: 680000001 cycles: 1858891108 heartbeat IPC: 0.321431 cumulative IPC: 0.32168 (Simulation time: 0 hr 33 min 43 sec) 
Heartbeat CPU 0 instructions: 690000001 cycles: 1890229966 heartbeat IPC: 0.319093 cumulative IPC: 0.321636 (Simulation time: 0 hr 34 min 14 sec) 
Heartbeat CPU 0 instructions: 700000000 cycles: 1921070380 heartbeat IPC: 0.32425 cumulative IPC: 0.321679 (Simulation time: 0 hr 34 min 44 sec) 
Heartbeat CPU 0 instructions: 710000001 cycles: 1951820976 heartbeat IPC: 0.325197 cumulative IPC: 0.321736 (Simulation time: 0 hr 35 min 15 sec) 
Heartbeat CPU 0 instructions: 720000001 cycles: 1983162606 heartbeat IPC: 0.319064 cumulative IPC: 0.321693 (Simulation time: 0 hr 35 min 46 sec) 
Heartbeat CPU 0 instructions: 730000001 cycles: 2014400431 heartbeat IPC: 0.320125 cumulative IPC: 0.321668 (Simulation time: 0 hr 36 min 17 sec) 
Heartbeat CPU 0 instructions: 740000001 cycles: 2045984614 heartbeat IPC: 0.316614 cumulative IPC: 0.321588 (Simulation time: 0 hr 36 min 47 sec) 
Heartbeat CPU 0 instructions: 750000002 cycles: 2077437060 heartbeat IPC: 0.31794 cumulative IPC: 0.321531 (Simulation time: 0 hr 37 min 18 sec) 
Heartbeat CPU 0 instructions: 760000002 cycles: 2108083495 heartbeat IPC: 0.326302 cumulative IPC: 0.321602 (Simulation time: 0 hr 37 min 48 sec) 
Heartbeat CPU 0 instructions: 770000000 cycles: 2139781751 heartbeat IPC: 0.315475 cumulative IPC: 0.321509 (Simulation time: 0 hr 38 min 17 sec) 
Heartbeat CPU 0 instructions: 780000000 cycles: 2171181504 heartbeat IPC: 0.318474 cumulative IPC: 0.321464 (Simulation time: 0 hr 38 min 48 sec) 
Heartbeat CPU 0 instructions: 790000001 cycles: 2203695371 heartbeat IPC: 0.307561 cumulative IPC: 0.321254 (Simulation time: 0 hr 39 min 18 sec) 
Heartbeat CPU 0 instructions: 800000002 cycles: 2234874887 heartbeat IPC: 0.320723 cumulative IPC: 0.321246 (Simulation time: 0 hr 39 min 49 sec) 
Heartbeat CPU 0 instructions: 810000001 cycles: 2266271771 heartbeat IPC: 0.318503 cumulative IPC: 0.321207 (Simulation time: 0 hr 40 min 19 sec) 
Heartbeat CPU 0 instructions: 820000003 cycles: 2297326201 heartbeat IPC: 0.322015 cumulative IPC: 0.321218 (Simulation time: 0 hr 40 min 49 sec) 
Heartbeat CPU 0 instructions: 830000000 cycles: 2329473132 heartbeat IPC: 0.311072 cumulative IPC: 0.321075 (Simulation time: 0 hr 41 min 20 sec) 
Heartbeat CPU 0 instructions: 840000003 cycles: 2361320825 heartbeat IPC: 0.313995 cumulative IPC: 0.320977 (Simulation time: 0 hr 41 min 51 sec) 
Heartbeat CPU 0 instructions: 850000000 cycles: 2392953930 heartbeat IPC: 0.316124 cumulative IPC: 0.320911 (Simulation time: 0 hr 42 min 21 sec) 
Heartbeat CPU 0 instructions: 860000000 cycles: 2424555573 heartbeat IPC: 0.316439 cumulative IPC: 0.320852 (Simulation time: 0 hr 42 min 51 sec) 
Heartbeat CPU 0 instructions: 870000001 cycles: 2456723153 heartbeat IPC: 0.310872 cumulative IPC: 0.320718 (Simulation time: 0 hr 43 min 21 sec) 
Heartbeat CPU 0 instructions: 880000000 cycles: 2487712623 heartbeat IPC: 0.32269 cumulative IPC: 0.320743 (Simulation time: 0 hr 43 min 51 sec) 
Heartbeat CPU 0 instructions: 890000000 cycles: 2519430435 heartbeat IPC: 0.31528 cumulative IPC: 0.320673 (Simulation time: 0 hr 44 min 21 sec) 
Heartbeat CPU 0 instructions: 900000001 cycles: 2550493418 heartbeat IPC: 0.321927 cumulative IPC: 0.320688 (Simulation time: 0 hr 44 min 50 sec) 
Heartbeat CPU 0 instructions: 910000000 cycles: 2581910944 heartbeat IPC: 0.318294 cumulative IPC: 0.320659 (Simulation time: 0 hr 45 min 20 sec) 
Heartbeat CPU 0 instructions: 920000001 cycles: 2613417700 heartbeat IPC: 0.317392 cumulative IPC: 0.320618 (Simulation time: 0 hr 45 min 51 sec) 
Heartbeat CPU 0 instructions: 930000003 cycles: 2644882451 heartbeat IPC: 0.317816 cumulative IPC: 0.320584 (Simulation time: 0 hr 46 min 21 sec) 
Heartbeat CPU 0 instructions: 940000002 cycles: 2676019098 heartbeat IPC: 0.321165 cumulative IPC: 0.320591 (Simulation time: 0 hr 46 min 51 sec) 
Heartbeat CPU 0 instructions: 950000000 cycles: 2707437101 heartbeat IPC: 0.318289 cumulative IPC: 0.320564 (Simulation time: 0 hr 47 min 21 sec) 
Heartbeat CPU 0 instructions: 960000003 cycles: 2738464034 heartbeat IPC: 0.322301 cumulative IPC: 0.320584 (Simulation time: 0 hr 47 min 51 sec) 
Heartbeat CPU 0 instructions: 970000000 cycles: 2769717899 heartbeat IPC: 0.31996 cumulative IPC: 0.320577 (Simulation time: 0 hr 48 min 21 sec) 
Heartbeat CPU 0 instructions: 980000000 cycles: 2801425090 heartbeat IPC: 0.315386 cumulative IPC: 0.320517 (Simulation time: 0 hr 48 min 51 sec) 
Heartbeat CPU 0 instructions: 990000000 cycles: 2832432513 heartbeat IPC: 0.322503 cumulative IPC: 0.320539 (Simulation time: 0 hr 49 min 22 sec) 
Heartbeat CPU 0 instructions: 1000000000 cycles: 2863404576 heartbeat IPC: 0.322872 cumulative IPC: 0.320565 (Simulation time: 0 hr 49 min 52 sec) 
Heartbeat CPU 0 instructions: 1010000001 cycles: 2894588075 heartbeat IPC: 0.320682 cumulative IPC: 0.320566 (Simulation time: 0 hr 50 min 21 sec) 
Heartbeat CPU 0 instructions: 1020000001 cycles: 2926017603 heartbeat IPC: 0.318172 cumulative IPC: 0.32054 (Simulation time: 0 hr 50 min 51 sec) 
Heartbeat CPU 0 instructions: 1030000002 cycles: 2958233874 heartbeat IPC: 0.310402 cumulative IPC: 0.320427 (Simulation time: 0 hr 51 min 22 sec) 
Heartbeat CPU 0 instructions: 1040000000 cycles: 2989600427 heartbeat IPC: 0.318811 cumulative IPC: 0.32041 (Simulation time: 0 hr 51 min 51 sec) 
Heartbeat CPU 0 instructions: 1050000003 cycles: 3020909133 heartbeat IPC: 0.3194 cumulative IPC: 0.320399 (Simulation time: 0 hr 52 min 21 sec) 
Heartbeat CPU 0 instructions: 1060000002 cycles: 3052504265 heartbeat IPC: 0.316504 cumulative IPC: 0.320358 (Simulation time: 0 hr 52 min 51 sec) 
Heartbeat CPU 0 instructions: 1070000002 cycles: 3084559926 heartbeat IPC: 0.311957 cumulative IPC: 0.320269 (Simulation time: 0 hr 53 min 21 sec) 
Heartbeat CPU 0 instructions: 1080000000 cycles: 3115876095 heartbeat IPC: 0.319324 cumulative IPC: 0.32026 (Simulation time: 0 hr 53 min 51 sec) 
Heartbeat CPU 0 instructions: 1090000003 cycles: 3147024288 heartbeat IPC: 0.321046 cumulative IPC: 0.320268 (Simulation time: 0 hr 54 min 21 sec) 
Heartbeat CPU 0 instructions: 1100000000 cycles: 3178196102 heartbeat IPC: 0.320803 cumulative IPC: 0.320273 (Simulation time: 0 hr 54 min 51 sec) 
Finished CPU 0 instructions: 1000000002 cycles: 3122336963 cumulative IPC: 0.320273 (Simulation time: 0 hr 54 min 51 sec) 

ChampSim completed all CPUs

Region of Interest Statistics

CPU 0 cumulative IPC: 0.320273 instructions: 1000000002 cycles: 3122336963
L1D TOTAL     ACCESS:  423737392  HIT:  403727292  MISS:   20010100
L1D LOAD      ACCESS:  245457942  HIT:  227960685  MISS:   17497257
L1D RFO       ACCESS:  178279450  HIT:  175766607  MISS:    2512843
L1D PREFETCH  ACCESS:          0  HIT:          0  MISS:          0
L1D WRITEBACK ACCESS:          0  HIT:          0  MISS:          0
L1D PREFETCH  REQUESTED:          0  ISSUED:          0  USEFUL:          0  USELESS:          0
L1D AVERAGE MISS LATENCY: 141.446 cycles
L1I TOTAL     ACCESS:  177912906  HIT:  177525993  MISS:     386913
L1I LOAD      ACCESS:  177912906  HIT:  177525993  MISS:     386913
L1I RFO       ACCESS:          0  HIT:          0  MISS:          0
L1I PREFETCH  ACCESS:          0  HIT:          0  MISS:          0
L1I WRITEBACK ACCESS:          0  HIT:          0  MISS:          0
L1I PREFETCH  REQUESTED:          0  ISSUED:          0  USEFUL:          0  USELESS:          0
L1I AVERAGE MISS LATENCY: 33.4114 cycles
L2C TOTAL     ACCESS:   30061707  HIT:   15596656  MISS:   14465051
L2C LOAD      ACCESS:   17883386  HIT:    5448559  MISS:   12434827
L2C RFO       ACCESS:    2512791  HIT:     512662  MISS:    2000129
L2C PREFETCH  ACCESS:          0  HIT:          0  MISS:          0
L2C WRITEBACK ACCESS:    9665530  HIT:    9635435  MISS:      30095
L2C PREFETCH  REQUESTED:          0  ISSUED:          0  USEFUL:          0  USELESS:          0
L2C AVERAGE MISS LATENCY: 174.812 cycles
LLC TOTAL     ACCESS:   21674422  HIT:    7573076  MISS:   14101346
LLC LOAD      ACCESS:   12434753  HIT:    3101264  MISS:    9333489
LLC RFO       ACCESS:    2000120  HIT:     674368  MISS:    1325752
LLC PREFETCH  ACCESS:          0  HIT:          0  MISS:          0
LLC WRITEBACK ACCESS:    7239549  HIT:    3797444  MISS:    3442105
LLC PREFETCH  REQUESTED:          0  ISSUED:          0  USEFUL:          0  USELESS:          0
LLC AVERAGE MISS LATENCY: 135.198 cycles
Major fault: 0 Minor fault: 51779
==============================
Perceptron RRIP Stats:
   Num Updates:          615320
   Num Primary Trains:   59669
   Num Secondary Trains: 60651
==============================
primary_perceptron #0: -3 -3 5 1 -1 3 1 -1 3 -1 -1 -1 -1 1 1 -9 
secondary_perceptron #0: -3 -1 7 3 1 5 1 -3 1 3 -1 -3 1 1 1 1 -1 -1 -5 1 -13 


DRAM Statistics
 CHANNEL 0
 RQ ROW_BUFFER_HIT:     881016  ROW_BUFFER_MISS:    9778146
 DBUS_CONGESTED:    2729325
 WQ ROW_BUFFER_HIT:    1100390  ROW_BUFFER_MISS:    3905846  FULL:          0

 AVG_CONGESTED_CYCLE: 6

CPU 0 Branch Prediction Accuracy: 95.7698% MPKI: 8.79501 Average ROB Occupancy at Mispredict: 77.5844

Branch types
NOT_BRANCH: 792090406 79.209%
BRANCH_DIRECT_JUMP: 11386471 1.13865%
BRANCH_INDIRECT: 3364042 0.336404%
BRANCH_CONDITIONAL: 133667621 13.3668%
BRANCH_DIRECT_CALL: 17787880 1.77879%
BRANCH_INDIRECT_CALL: 11957676 1.19577%
BRANCH_RETURN: 29745554 2.97456%
BRANCH_OTHER: 0 0%

