
*** ChampSim Multicore Out-of-Order Simulator ***

Warmup Instructions: 100000000
Simulation Instructions: 1000000000
Number of CPUs: 1
LLC sets: 2048
LLC ways: 16
Off-chip DRAM Size: 4096 MB Channels: 1 Width: 64-bit Data Rate: 3200 MT/s

CPU 0 runs /scratch/user/kevin.weston/dpc3-traces/620.champsimtrace.xz
CPU 0 Bimodal branch predictor
Heartbeat CPU 0 instructions: 10000001 cycles: 5584459 heartbeat IPC: 1.79068 cumulative IPC: 1.79068 (Simulation time: 0 hr 0 min 29 sec) 
Heartbeat CPU 0 instructions: 20000000 cycles: 11168739 heartbeat IPC: 1.79074 cumulative IPC: 1.79071 (Simulation time: 0 hr 0 min 58 sec) 
Heartbeat CPU 0 instructions: 30000002 cycles: 16745352 heartbeat IPC: 1.7932 cumulative IPC: 1.79154 (Simulation time: 0 hr 1 min 27 sec) 
Heartbeat CPU 0 instructions: 40000000 cycles: 22337805 heartbeat IPC: 1.78812 cumulative IPC: 1.79069 (Simulation time: 0 hr 1 min 56 sec) 
Heartbeat CPU 0 instructions: 50000000 cycles: 27922890 heartbeat IPC: 1.79048 cumulative IPC: 1.79065 (Simulation time: 0 hr 2 min 25 sec) 
Heartbeat CPU 0 instructions: 60000001 cycles: 33520951 heartbeat IPC: 1.78633 cumulative IPC: 1.78993 (Simulation time: 0 hr 2 min 54 sec) 
Heartbeat CPU 0 instructions: 70000001 cycles: 39100005 heartbeat IPC: 1.79242 cumulative IPC: 1.79028 (Simulation time: 0 hr 3 min 23 sec) 
Heartbeat CPU 0 instructions: 80000001 cycles: 44678738 heartbeat IPC: 1.79252 cumulative IPC: 1.79056 (Simulation time: 0 hr 3 min 52 sec) 
Heartbeat CPU 0 instructions: 90000001 cycles: 50266061 heartbeat IPC: 1.78977 cumulative IPC: 1.79047 (Simulation time: 0 hr 4 min 21 sec) 
Heartbeat CPU 0 instructions: 100000003 cycles: 55855790 heartbeat IPC: 1.789 cumulative IPC: 1.79032 (Simulation time: 0 hr 4 min 50 sec) 

Warmup complete CPU 0 instructions: 100000003 cycles: 55855790 (Simulation time: 0 hr 4 min 50 sec) 

Heartbeat CPU 0 instructions: 110000000 cycles: 85700315 heartbeat IPC: 0.33507 cumulative IPC: 0.33507 (Simulation time: 0 hr 5 min 20 sec) 
Heartbeat CPU 0 instructions: 120000000 cycles: 115678376 heartbeat IPC: 0.333577 cumulative IPC: 0.334322 (Simulation time: 0 hr 5 min 49 sec) 
Heartbeat CPU 0 instructions: 130000000 cycles: 146138558 heartbeat IPC: 0.328297 cumulative IPC: 0.332289 (Simulation time: 0 hr 6 min 19 sec) 
Heartbeat CPU 0 instructions: 140000001 cycles: 176125991 heartbeat IPC: 0.333473 cumulative IPC: 0.332584 (Simulation time: 0 hr 6 min 49 sec) 
Heartbeat CPU 0 instructions: 150000002 cycles: 206262019 heartbeat IPC: 0.331829 cumulative IPC: 0.332433 (Simulation time: 0 hr 7 min 18 sec) 
Heartbeat CPU 0 instructions: 160000000 cycles: 236684496 heartbeat IPC: 0.328704 cumulative IPC: 0.331806 (Simulation time: 0 hr 7 min 48 sec) 
Heartbeat CPU 0 instructions: 170000000 cycles: 266374423 heartbeat IPC: 0.336815 cumulative IPC: 0.332512 (Simulation time: 0 hr 8 min 17 sec) 
Heartbeat CPU 0 instructions: 180000000 cycles: 296364222 heartbeat IPC: 0.333447 cumulative IPC: 0.332629 (Simulation time: 0 hr 8 min 47 sec) 
Heartbeat CPU 0 instructions: 190000003 cycles: 326631295 heartbeat IPC: 0.330392 cumulative IPC: 0.332379 (Simulation time: 0 hr 9 min 16 sec) 
Heartbeat CPU 0 instructions: 200000000 cycles: 356538406 heartbeat IPC: 0.334369 cumulative IPC: 0.332577 (Simulation time: 0 hr 9 min 46 sec) 
Heartbeat CPU 0 instructions: 210000000 cycles: 386653871 heartbeat IPC: 0.332055 cumulative IPC: 0.332529 (Simulation time: 0 hr 10 min 16 sec) 
Heartbeat CPU 0 instructions: 220000000 cycles: 416596373 heartbeat IPC: 0.333973 cumulative IPC: 0.332649 (Simulation time: 0 hr 10 min 45 sec) 
Heartbeat CPU 0 instructions: 230000002 cycles: 446225391 heartbeat IPC: 0.337507 cumulative IPC: 0.333018 (Simulation time: 0 hr 11 min 15 sec) 
Heartbeat CPU 0 instructions: 240000001 cycles: 476333332 heartbeat IPC: 0.332138 cumulative IPC: 0.332955 (Simulation time: 0 hr 11 min 45 sec) 
Heartbeat CPU 0 instructions: 250000000 cycles: 506397793 heartbeat IPC: 0.332619 cumulative IPC: 0.332932 (Simulation time: 0 hr 12 min 14 sec) 
Heartbeat CPU 0 instructions: 260000000 cycles: 536565492 heartbeat IPC: 0.33148 cumulative IPC: 0.332841 (Simulation time: 0 hr 12 min 44 sec) 
Heartbeat CPU 0 instructions: 270000002 cycles: 566853722 heartbeat IPC: 0.330161 cumulative IPC: 0.332682 (Simulation time: 0 hr 13 min 14 sec) 
Heartbeat CPU 0 instructions: 280000001 cycles: 596992948 heartbeat IPC: 0.331793 cumulative IPC: 0.332633 (Simulation time: 0 hr 13 min 43 sec) 
Heartbeat CPU 0 instructions: 290000000 cycles: 627408629 heartbeat IPC: 0.328778 cumulative IPC: 0.332428 (Simulation time: 0 hr 14 min 13 sec) 
Heartbeat CPU 0 instructions: 300000000 cycles: 657531525 heartbeat IPC: 0.331973 cumulative IPC: 0.332405 (Simulation time: 0 hr 14 min 43 sec) 
Heartbeat CPU 0 instructions: 310000000 cycles: 687238851 heartbeat IPC: 0.336617 cumulative IPC: 0.332603 (Simulation time: 0 hr 15 min 12 sec) 
Heartbeat CPU 0 instructions: 320000002 cycles: 717332466 heartbeat IPC: 0.332296 cumulative IPC: 0.332589 (Simulation time: 0 hr 15 min 42 sec) 
Heartbeat CPU 0 instructions: 330000000 cycles: 747464913 heartbeat IPC: 0.331868 cumulative IPC: 0.332558 (Simulation time: 0 hr 16 min 12 sec) 
Heartbeat CPU 0 instructions: 340000001 cycles: 777953298 heartbeat IPC: 0.327994 cumulative IPC: 0.332365 (Simulation time: 0 hr 16 min 42 sec) 
Heartbeat CPU 0 instructions: 350000000 cycles: 808339672 heartbeat IPC: 0.329095 cumulative IPC: 0.332233 (Simulation time: 0 hr 17 min 11 sec) 
Heartbeat CPU 0 instructions: 360000003 cycles: 838522332 heartbeat IPC: 0.331316 cumulative IPC: 0.332198 (Simulation time: 0 hr 17 min 41 sec) 
Heartbeat CPU 0 instructions: 370000000 cycles: 868559556 heartbeat IPC: 0.33292 cumulative IPC: 0.332224 (Simulation time: 0 hr 18 min 11 sec) 
Heartbeat CPU 0 instructions: 380000003 cycles: 898698230 heartbeat IPC: 0.3318 cumulative IPC: 0.332209 (Simulation time: 0 hr 18 min 41 sec) 
Heartbeat CPU 0 instructions: 390000003 cycles: 928277336 heartbeat IPC: 0.338076 cumulative IPC: 0.332408 (Simulation time: 0 hr 19 min 10 sec) 
Heartbeat CPU 0 instructions: 400000000 cycles: 958727239 heartbeat IPC: 0.328408 cumulative IPC: 0.332273 (Simulation time: 0 hr 19 min 40 sec) 
Heartbeat CPU 0 instructions: 410000001 cycles: 988964534 heartbeat IPC: 0.330717 cumulative IPC: 0.332223 (Simulation time: 0 hr 20 min 10 sec) 
Heartbeat CPU 0 instructions: 420000000 cycles: 1018958271 heartbeat IPC: 0.333403 cumulative IPC: 0.33226 (Simulation time: 0 hr 20 min 39 sec) 
Heartbeat CPU 0 instructions: 430000000 cycles: 1049296277 heartbeat IPC: 0.32962 cumulative IPC: 0.332179 (Simulation time: 0 hr 21 min 9 sec) 
Heartbeat CPU 0 instructions: 440000000 cycles: 1079127207 heartbeat IPC: 0.335223 cumulative IPC: 0.332268 (Simulation time: 0 hr 21 min 39 sec) 
Heartbeat CPU 0 instructions: 450000001 cycles: 1109254013 heartbeat IPC: 0.33193 cumulative IPC: 0.332258 (Simulation time: 0 hr 22 min 9 sec) 
Heartbeat CPU 0 instructions: 460000002 cycles: 1138536118 heartbeat IPC: 0.341506 cumulative IPC: 0.332508 (Simulation time: 0 hr 22 min 38 sec) 
Heartbeat CPU 0 instructions: 470000002 cycles: 1168552495 heartbeat IPC: 0.333151 cumulative IPC: 0.332525 (Simulation time: 0 hr 23 min 8 sec) 
Heartbeat CPU 0 instructions: 480000000 cycles: 1198519482 heartbeat IPC: 0.3337 cumulative IPC: 0.332556 (Simulation time: 0 hr 23 min 38 sec) 
Heartbeat CPU 0 instructions: 490000000 cycles: 1228360796 heartbeat IPC: 0.335106 cumulative IPC: 0.332621 (Simulation time: 0 hr 24 min 8 sec) 
Heartbeat CPU 0 instructions: 500000000 cycles: 1258053827 heartbeat IPC: 0.336779 cumulative IPC: 0.332724 (Simulation time: 0 hr 24 min 37 sec) 
Heartbeat CPU 0 instructions: 510000003 cycles: 1287846712 heartbeat IPC: 0.335651 cumulative IPC: 0.332795 (Simulation time: 0 hr 25 min 7 sec) 
Heartbeat CPU 0 instructions: 520000001 cycles: 1317484804 heartbeat IPC: 0.337404 cumulative IPC: 0.332903 (Simulation time: 0 hr 25 min 36 sec) 
Heartbeat CPU 0 instructions: 530000001 cycles: 1347652544 heartbeat IPC: 0.33148 cumulative IPC: 0.33287 (Simulation time: 0 hr 26 min 6 sec) 
Heartbeat CPU 0 instructions: 540000001 cycles: 1376946560 heartbeat IPC: 0.341367 cumulative IPC: 0.333058 (Simulation time: 0 hr 26 min 36 sec) 
Heartbeat CPU 0 instructions: 550000000 cycles: 1407242452 heartbeat IPC: 0.330078 cumulative IPC: 0.332991 (Simulation time: 0 hr 27 min 6 sec) 
Heartbeat CPU 0 instructions: 560000000 cycles: 1437580586 heartbeat IPC: 0.329618 cumulative IPC: 0.332917 (Simulation time: 0 hr 27 min 36 sec) 
Heartbeat CPU 0 instructions: 570000002 cycles: 1467296904 heartbeat IPC: 0.336516 cumulative IPC: 0.332993 (Simulation time: 0 hr 28 min 5 sec) 
Heartbeat CPU 0 instructions: 580000000 cycles: 1496914050 heartbeat IPC: 0.337642 cumulative IPC: 0.333089 (Simulation time: 0 hr 28 min 35 sec) 
Heartbeat CPU 0 instructions: 590000002 cycles: 1527216959 heartbeat IPC: 0.330001 cumulative IPC: 0.333025 (Simulation time: 0 hr 29 min 4 sec) 
Heartbeat CPU 0 instructions: 600000000 cycles: 1557011361 heartbeat IPC: 0.335633 cumulative IPC: 0.333077 (Simulation time: 0 hr 29 min 34 sec) 
Heartbeat CPU 0 instructions: 610000000 cycles: 1587063405 heartbeat IPC: 0.332756 cumulative IPC: 0.33307 (Simulation time: 0 hr 30 min 4 sec) 
Heartbeat CPU 0 instructions: 620000000 cycles: 1617849197 heartbeat IPC: 0.324825 cumulative IPC: 0.332908 (Simulation time: 0 hr 30 min 34 sec) 
Heartbeat CPU 0 instructions: 630000001 cycles: 1647852595 heartbeat IPC: 0.333296 cumulative IPC: 0.332915 (Simulation time: 0 hr 31 min 3 sec) 
Heartbeat CPU 0 instructions: 640000003 cycles: 1677943404 heartbeat IPC: 0.332327 cumulative IPC: 0.332904 (Simulation time: 0 hr 31 min 33 sec) 
Heartbeat CPU 0 instructions: 650000000 cycles: 1708200855 heartbeat IPC: 0.330497 cumulative IPC: 0.33286 (Simulation time: 0 hr 32 min 3 sec) 
Heartbeat CPU 0 instructions: 660000000 cycles: 1738153517 heartbeat IPC: 0.33386 cumulative IPC: 0.332878 (Simulation time: 0 hr 32 min 33 sec) 
Heartbeat CPU 0 instructions: 670000000 cycles: 1768297563 heartbeat IPC: 0.33174 cumulative IPC: 0.332858 (Simulation time: 0 hr 33 min 4 sec) 
Heartbeat CPU 0 instructions: 680000001 cycles: 1798158211 heartbeat IPC: 0.334889 cumulative IPC: 0.332893 (Simulation time: 0 hr 33 min 33 sec) 
Heartbeat CPU 0 instructions: 690000001 cycles: 1828450956 heartbeat IPC: 0.330112 cumulative IPC: 0.332845 (Simulation time: 0 hr 34 min 3 sec) 
Heartbeat CPU 0 instructions: 700000000 cycles: 1858339473 heartbeat IPC: 0.334577 cumulative IPC: 0.332874 (Simulation time: 0 hr 34 min 33 sec) 
Heartbeat CPU 0 instructions: 710000001 cycles: 1888232062 heartbeat IPC: 0.334531 cumulative IPC: 0.332901 (Simulation time: 0 hr 35 min 2 sec) 
Heartbeat CPU 0 instructions: 720000001 cycles: 1918285580 heartbeat IPC: 0.33274 cumulative IPC: 0.332898 (Simulation time: 0 hr 35 min 32 sec) 
Heartbeat CPU 0 instructions: 730000001 cycles: 1948528534 heartbeat IPC: 0.330656 cumulative IPC: 0.332863 (Simulation time: 0 hr 36 min 2 sec) 
Heartbeat CPU 0 instructions: 740000001 cycles: 1978758708 heartbeat IPC: 0.330795 cumulative IPC: 0.33283 (Simulation time: 0 hr 36 min 32 sec) 
Heartbeat CPU 0 instructions: 750000002 cycles: 2009052900 heartbeat IPC: 0.330096 cumulative IPC: 0.332788 (Simulation time: 0 hr 37 min 2 sec) 
Heartbeat CPU 0 instructions: 760000002 cycles: 2038936232 heartbeat IPC: 0.334635 cumulative IPC: 0.332816 (Simulation time: 0 hr 37 min 31 sec) 
Heartbeat CPU 0 instructions: 770000000 cycles: 2069816074 heartbeat IPC: 0.323836 cumulative IPC: 0.332678 (Simulation time: 0 hr 38 min 1 sec) 
Heartbeat CPU 0 instructions: 780000000 cycles: 2100153223 heartbeat IPC: 0.329629 cumulative IPC: 0.332633 (Simulation time: 0 hr 38 min 31 sec) 
Heartbeat CPU 0 instructions: 790000001 cycles: 2131602513 heartbeat IPC: 0.317972 cumulative IPC: 0.33241 (Simulation time: 0 hr 39 min 1 sec) 
Heartbeat CPU 0 instructions: 800000002 cycles: 2161755220 heartbeat IPC: 0.331645 cumulative IPC: 0.3324 (Simulation time: 0 hr 39 min 31 sec) 
Heartbeat CPU 0 instructions: 810000001 cycles: 2192370648 heartbeat IPC: 0.326633 cumulative IPC: 0.332317 (Simulation time: 0 hr 40 min 1 sec) 
Heartbeat CPU 0 instructions: 820000003 cycles: 2222638084 heartbeat IPC: 0.330388 cumulative IPC: 0.33229 (Simulation time: 0 hr 40 min 31 sec) 
Heartbeat CPU 0 instructions: 830000000 cycles: 2253521319 heartbeat IPC: 0.3238 cumulative IPC: 0.332171 (Simulation time: 0 hr 41 min 1 sec) 
Heartbeat CPU 0 instructions: 840000003 cycles: 2284345239 heartbeat IPC: 0.324423 cumulative IPC: 0.332063 (Simulation time: 0 hr 41 min 31 sec) 
Heartbeat CPU 0 instructions: 850000000 cycles: 2314984136 heartbeat IPC: 0.326382 cumulative IPC: 0.331986 (Simulation time: 0 hr 42 min 1 sec) 
Heartbeat CPU 0 instructions: 860000000 cycles: 2345657590 heartbeat IPC: 0.326015 cumulative IPC: 0.331906 (Simulation time: 0 hr 42 min 31 sec) 
Heartbeat CPU 0 instructions: 870000001 cycles: 2376835134 heartbeat IPC: 0.320744 cumulative IPC: 0.331757 (Simulation time: 0 hr 43 min 2 sec) 
Heartbeat CPU 0 instructions: 880000000 cycles: 2406914905 heartbeat IPC: 0.332449 cumulative IPC: 0.331765 (Simulation time: 0 hr 43 min 32 sec) 
Heartbeat CPU 0 instructions: 890000000 cycles: 2437280019 heartbeat IPC: 0.329325 cumulative IPC: 0.331734 (Simulation time: 0 hr 44 min 1 sec) 
Heartbeat CPU 0 instructions: 900000001 cycles: 2467487486 heartbeat IPC: 0.331044 cumulative IPC: 0.331726 (Simulation time: 0 hr 44 min 30 sec) 
Heartbeat CPU 0 instructions: 910000000 cycles: 2497885384 heartbeat IPC: 0.32897 cumulative IPC: 0.331691 (Simulation time: 0 hr 44 min 59 sec) 
Heartbeat CPU 0 instructions: 920000001 cycles: 2528366583 heartbeat IPC: 0.328071 cumulative IPC: 0.331647 (Simulation time: 0 hr 45 min 28 sec) 
Heartbeat CPU 0 instructions: 930000003 cycles: 2558771390 heartbeat IPC: 0.328895 cumulative IPC: 0.331613 (Simulation time: 0 hr 45 min 57 sec) 
Heartbeat CPU 0 instructions: 940000002 cycles: 2588507405 heartbeat IPC: 0.336293 cumulative IPC: 0.331668 (Simulation time: 0 hr 46 min 26 sec) 
Heartbeat CPU 0 instructions: 950000000 cycles: 2618739849 heartbeat IPC: 0.33077 cumulative IPC: 0.331658 (Simulation time: 0 hr 46 min 55 sec) 
Heartbeat CPU 0 instructions: 960000003 cycles: 2648704438 heartbeat IPC: 0.333727 cumulative IPC: 0.331682 (Simulation time: 0 hr 47 min 24 sec) 
Heartbeat CPU 0 instructions: 970000000 cycles: 2678920108 heartbeat IPC: 0.330954 cumulative IPC: 0.331673 (Simulation time: 0 hr 47 min 53 sec) 
Heartbeat CPU 0 instructions: 980000000 cycles: 2709533116 heartbeat IPC: 0.326659 cumulative IPC: 0.331615 (Simulation time: 0 hr 48 min 22 sec) 
Heartbeat CPU 0 instructions: 990000000 cycles: 2739360696 heartbeat IPC: 0.33526 cumulative IPC: 0.331656 (Simulation time: 0 hr 48 min 51 sec) 
Heartbeat CPU 0 instructions: 1000000000 cycles: 2769272859 heartbeat IPC: 0.334312 cumulative IPC: 0.331685 (Simulation time: 0 hr 49 min 20 sec) 
Heartbeat CPU 0 instructions: 1010000001 cycles: 2799420998 heartbeat IPC: 0.331695 cumulative IPC: 0.331685 (Simulation time: 0 hr 49 min 49 sec) 
Heartbeat CPU 0 instructions: 1020000001 cycles: 2829784826 heartbeat IPC: 0.329339 cumulative IPC: 0.33166 (Simulation time: 0 hr 50 min 18 sec) 
Heartbeat CPU 0 instructions: 1030000002 cycles: 2861002756 heartbeat IPC: 0.320329 cumulative IPC: 0.331533 (Simulation time: 0 hr 50 min 48 sec) 
Heartbeat CPU 0 instructions: 1040000000 cycles: 2891474021 heartbeat IPC: 0.328178 cumulative IPC: 0.331497 (Simulation time: 0 hr 51 min 17 sec) 
Heartbeat CPU 0 instructions: 1050000003 cycles: 2921825090 heartbeat IPC: 0.329478 cumulative IPC: 0.331476 (Simulation time: 0 hr 51 min 46 sec) 
Heartbeat CPU 0 instructions: 1060000002 cycles: 2952489677 heartbeat IPC: 0.326109 cumulative IPC: 0.331419 (Simulation time: 0 hr 52 min 15 sec) 
Heartbeat CPU 0 instructions: 1070000002 cycles: 2983467583 heartbeat IPC: 0.322811 cumulative IPC: 0.331328 (Simulation time: 0 hr 52 min 44 sec) 
Heartbeat CPU 0 instructions: 1080000000 cycles: 3013841880 heartbeat IPC: 0.329226 cumulative IPC: 0.331306 (Simulation time: 0 hr 53 min 13 sec) 
Heartbeat CPU 0 instructions: 1090000003 cycles: 3043916609 heartbeat IPC: 0.332505 cumulative IPC: 0.331319 (Simulation time: 0 hr 53 min 42 sec) 
Heartbeat CPU 0 instructions: 1100000000 cycles: 3073997130 heartbeat IPC: 0.332441 cumulative IPC: 0.33133 (Simulation time: 0 hr 54 min 11 sec) 
Finished CPU 0 instructions: 1000000002 cycles: 3018141349 cumulative IPC: 0.33133 (Simulation time: 0 hr 54 min 11 sec) 

ChampSim completed all CPUs

Region of Interest Statistics

CPU 0 cumulative IPC: 0.33133 instructions: 1000000002 cycles: 3018141349
L1D TOTAL     ACCESS:  424759744  HIT:  404749399  MISS:   20010345
L1D LOAD      ACCESS:  245900541  HIT:  228402952  MISS:   17497589
L1D RFO       ACCESS:  178859203  HIT:  176346447  MISS:    2512756
L1D PREFETCH  ACCESS:          0  HIT:          0  MISS:          0
L1D WRITEBACK ACCESS:          0  HIT:          0  MISS:          0
L1D PREFETCH  REQUESTED:          0  ISSUED:          0  USEFUL:          0  USELESS:          0
L1D AVERAGE MISS LATENCY: 128.223 cycles
L1I TOTAL     ACCESS:  177961074  HIT:  177574161  MISS:     386913
L1I LOAD      ACCESS:  177961074  HIT:  177574161  MISS:     386913
L1I RFO       ACCESS:          0  HIT:          0  MISS:          0
L1I PREFETCH  ACCESS:          0  HIT:          0  MISS:          0
L1I WRITEBACK ACCESS:          0  HIT:          0  MISS:          0
L1I PREFETCH  REQUESTED:          0  ISSUED:          0  USEFUL:          0  USELESS:          0
L1I AVERAGE MISS LATENCY: 34.2133 cycles
L2C TOTAL     ACCESS:   30062562  HIT:   15600457  MISS:   14462105
L2C LOAD      ACCESS:   17883715  HIT:    5453013  MISS:   12430702
L2C RFO       ACCESS:    2512702  HIT:     511739  MISS:    2000963
L2C PREFETCH  ACCESS:          0  HIT:          0  MISS:          0
L2C WRITEBACK ACCESS:    9666145  HIT:    9635705  MISS:      30440
L2C PREFETCH  REQUESTED:          0  ISSUED:          0  USEFUL:          0  USELESS:          0
L2C AVERAGE MISS LATENCY: 156.605 cycles
LLC TOTAL     ACCESS:   21669530  HIT:   12521676  MISS:    9147854
LLC LOAD      ACCESS:   12430630  HIT:    4172202  MISS:    8258428
LLC RFO       ACCESS:    2000949  HIT:    1119155  MISS:     881794
LLC PREFETCH  ACCESS:          0  HIT:          0  MISS:          0
LLC WRITEBACK ACCESS:    7237951  HIT:    7230319  MISS:       7632
LLC PREFETCH  REQUESTED:          0  ISSUED:          0  USEFUL:          0  USELESS:          0
LLC AVERAGE MISS LATENCY: 179.128 cycles
Major fault: 0 Minor fault: 51779

DRAM Statistics
 CHANNEL 0
 RQ ROW_BUFFER_HIT:     724618  ROW_BUFFER_MISS:    8415594
 DBUS_CONGESTED:    2425469
 WQ ROW_BUFFER_HIT:     934980  ROW_BUFFER_MISS:    3390633  FULL:          0

 AVG_CONGESTED_CYCLE: 6

CPU 0 Branch Prediction Accuracy: 95.7698% MPKI: 8.79501 Average ROB Occupancy at Mispredict: 76.8612

Branch types
NOT_BRANCH: 792090406 79.209%
BRANCH_DIRECT_JUMP: 11386471 1.13865%
BRANCH_INDIRECT: 3364042 0.336404%
BRANCH_CONDITIONAL: 133667621 13.3668%
BRANCH_DIRECT_CALL: 17787880 1.77879%
BRANCH_INDIRECT_CALL: 11957676 1.19577%
BRANCH_RETURN: 29745554 2.97456%
BRANCH_OTHER: 0 0%

