
*** ChampSim Multicore Out-of-Order Simulator ***

Warmup Instructions: 100000000
Simulation Instructions: 1000000000
Number of CPUs: 1
LLC sets: 2048
LLC ways: 16
Off-chip DRAM Size: 4096 MB Channels: 1 Width: 64-bit Data Rate: 3200 MT/s

CPU 0 runs /scratch/user/kevin.weston/dpc3-traces/620.champsimtrace.xz
CPU 0 Bimodal branch predictor
Initialize RRPV
Initialize PRRIP state
Heartbeat CPU 0 instructions: 10000001 cycles: 5584620 heartbeat IPC: 1.79063 cumulative IPC: 1.79063 (Simulation time: 0 hr 0 min 28 sec) 
Heartbeat CPU 0 instructions: 20000000 cycles: 11169036 heartbeat IPC: 1.7907 cumulative IPC: 1.79066 (Simulation time: 0 hr 0 min 56 sec) 
Heartbeat CPU 0 instructions: 30000002 cycles: 16745991 heartbeat IPC: 1.79309 cumulative IPC: 1.79147 (Simulation time: 0 hr 1 min 23 sec) 
Heartbeat CPU 0 instructions: 40000000 cycles: 22338741 heartbeat IPC: 1.78803 cumulative IPC: 1.79061 (Simulation time: 0 hr 1 min 51 sec) 
Heartbeat CPU 0 instructions: 50000000 cycles: 27924091 heartbeat IPC: 1.7904 cumulative IPC: 1.79057 (Simulation time: 0 hr 2 min 19 sec) 
Heartbeat CPU 0 instructions: 60000001 cycles: 33522346 heartbeat IPC: 1.78627 cumulative IPC: 1.78985 (Simulation time: 0 hr 2 min 47 sec) 
Heartbeat CPU 0 instructions: 70000001 cycles: 39101632 heartbeat IPC: 1.79234 cumulative IPC: 1.79021 (Simulation time: 0 hr 3 min 14 sec) 
Heartbeat CPU 0 instructions: 80000001 cycles: 44680568 heartbeat IPC: 1.79246 cumulative IPC: 1.79049 (Simulation time: 0 hr 3 min 42 sec) 
Heartbeat CPU 0 instructions: 90000001 cycles: 50267995 heartbeat IPC: 1.78973 cumulative IPC: 1.7904 (Simulation time: 0 hr 4 min 10 sec) 
Heartbeat CPU 0 instructions: 100000003 cycles: 55857826 heartbeat IPC: 1.78896 cumulative IPC: 1.79026 (Simulation time: 0 hr 4 min 38 sec) 

Warmup complete CPU 0 instructions: 100000003 cycles: 55857826 (Simulation time: 0 hr 4 min 38 sec) 

Heartbeat CPU 0 instructions: 110000000 cycles: 86622692 heartbeat IPC: 0.325046 cumulative IPC: 0.325046 (Simulation time: 0 hr 5 min 7 sec) 
Heartbeat CPU 0 instructions: 120000000 cycles: 117274553 heartbeat IPC: 0.326244 cumulative IPC: 0.325644 (Simulation time: 0 hr 5 min 35 sec) 
Heartbeat CPU 0 instructions: 130000000 cycles: 148341137 heartbeat IPC: 0.321889 cumulative IPC: 0.324383 (Simulation time: 0 hr 6 min 4 sec) 
Heartbeat CPU 0 instructions: 140000001 cycles: 179018486 heartbeat IPC: 0.325973 cumulative IPC: 0.324779 (Simulation time: 0 hr 6 min 33 sec) 
Heartbeat CPU 0 instructions: 150000002 cycles: 209807060 heartbeat IPC: 0.324796 cumulative IPC: 0.324782 (Simulation time: 0 hr 7 min 2 sec) 
Heartbeat CPU 0 instructions: 160000000 cycles: 240969275 heartbeat IPC: 0.320901 cumulative IPC: 0.324129 (Simulation time: 0 hr 7 min 31 sec) 
Heartbeat CPU 0 instructions: 170000000 cycles: 271517431 heartbeat IPC: 0.327352 cumulative IPC: 0.324586 (Simulation time: 0 hr 8 min 0 sec) 
Heartbeat CPU 0 instructions: 180000000 cycles: 302246595 heartbeat IPC: 0.325424 cumulative IPC: 0.32469 (Simulation time: 0 hr 8 min 28 sec) 
Heartbeat CPU 0 instructions: 190000003 cycles: 333090364 heartbeat IPC: 0.324215 cumulative IPC: 0.324637 (Simulation time: 0 hr 8 min 57 sec) 
Heartbeat CPU 0 instructions: 200000000 cycles: 363614800 heartbeat IPC: 0.327606 cumulative IPC: 0.324932 (Simulation time: 0 hr 9 min 26 sec) 
Heartbeat CPU 0 instructions: 210000000 cycles: 394371021 heartbeat IPC: 0.325137 cumulative IPC: 0.32495 (Simulation time: 0 hr 9 min 55 sec) 
Heartbeat CPU 0 instructions: 220000000 cycles: 425100273 heartbeat IPC: 0.325423 cumulative IPC: 0.32499 (Simulation time: 0 hr 10 min 23 sec) 
Heartbeat CPU 0 instructions: 230000002 cycles: 455465041 heartbeat IPC: 0.329329 cumulative IPC: 0.325319 (Simulation time: 0 hr 10 min 52 sec) 
Heartbeat CPU 0 instructions: 240000001 cycles: 486183027 heartbeat IPC: 0.325542 cumulative IPC: 0.325335 (Simulation time: 0 hr 11 min 21 sec) 
Heartbeat CPU 0 instructions: 250000000 cycles: 516973902 heartbeat IPC: 0.324772 cumulative IPC: 0.325298 (Simulation time: 0 hr 11 min 50 sec) 
Heartbeat CPU 0 instructions: 260000000 cycles: 547805156 heartbeat IPC: 0.324346 cumulative IPC: 0.325238 (Simulation time: 0 hr 12 min 19 sec) 
Heartbeat CPU 0 instructions: 270000002 cycles: 578854225 heartbeat IPC: 0.322071 cumulative IPC: 0.32505 (Simulation time: 0 hr 12 min 48 sec) 
Heartbeat CPU 0 instructions: 280000001 cycles: 609874706 heartbeat IPC: 0.322368 cumulative IPC: 0.3249 (Simulation time: 0 hr 13 min 17 sec) 
Heartbeat CPU 0 instructions: 290000000 cycles: 640971411 heartbeat IPC: 0.321577 cumulative IPC: 0.324723 (Simulation time: 0 hr 13 min 46 sec) 
Heartbeat CPU 0 instructions: 300000000 cycles: 671671567 heartbeat IPC: 0.325731 cumulative IPC: 0.324774 (Simulation time: 0 hr 14 min 14 sec) 
Heartbeat CPU 0 instructions: 310000000 cycles: 701958294 heartbeat IPC: 0.330178 cumulative IPC: 0.325027 (Simulation time: 0 hr 14 min 43 sec) 
Heartbeat CPU 0 instructions: 320000002 cycles: 732786855 heartbeat IPC: 0.324375 cumulative IPC: 0.324997 (Simulation time: 0 hr 15 min 12 sec) 
Heartbeat CPU 0 instructions: 330000000 cycles: 763702705 heartbeat IPC: 0.323459 cumulative IPC: 0.32493 (Simulation time: 0 hr 15 min 41 sec) 
Heartbeat CPU 0 instructions: 340000001 cycles: 794868361 heartbeat IPC: 0.320866 cumulative IPC: 0.324759 (Simulation time: 0 hr 16 min 10 sec) 
Heartbeat CPU 0 instructions: 350000000 cycles: 825876880 heartbeat IPC: 0.322492 cumulative IPC: 0.324667 (Simulation time: 0 hr 16 min 39 sec) 
Heartbeat CPU 0 instructions: 360000003 cycles: 856753708 heartbeat IPC: 0.323868 cumulative IPC: 0.324636 (Simulation time: 0 hr 17 min 8 sec) 
Heartbeat CPU 0 instructions: 370000000 cycles: 887283181 heartbeat IPC: 0.327552 cumulative IPC: 0.324744 (Simulation time: 0 hr 17 min 36 sec) 
Heartbeat CPU 0 instructions: 380000003 cycles: 918030282 heartbeat IPC: 0.325234 cumulative IPC: 0.324761 (Simulation time: 0 hr 18 min 5 sec) 
Heartbeat CPU 0 instructions: 390000003 cycles: 948219004 heartbeat IPC: 0.33125 cumulative IPC: 0.324981 (Simulation time: 0 hr 18 min 34 sec) 
Heartbeat CPU 0 instructions: 400000000 cycles: 979287541 heartbeat IPC: 0.321869 cumulative IPC: 0.324876 (Simulation time: 0 hr 19 min 3 sec) 
Heartbeat CPU 0 instructions: 410000001 cycles: 1010148420 heartbeat IPC: 0.324035 cumulative IPC: 0.324849 (Simulation time: 0 hr 19 min 31 sec) 
Heartbeat CPU 0 instructions: 420000000 cycles: 1040849004 heartbeat IPC: 0.325727 cumulative IPC: 0.324876 (Simulation time: 0 hr 20 min 0 sec) 
Heartbeat CPU 0 instructions: 430000000 cycles: 1071857580 heartbeat IPC: 0.322491 cumulative IPC: 0.324803 (Simulation time: 0 hr 20 min 29 sec) 
Heartbeat CPU 0 instructions: 440000000 cycles: 1102130118 heartbeat IPC: 0.330332 cumulative IPC: 0.324963 (Simulation time: 0 hr 20 min 58 sec) 
Heartbeat CPU 0 instructions: 450000001 cycles: 1132999822 heartbeat IPC: 0.323942 cumulative IPC: 0.324934 (Simulation time: 0 hr 21 min 27 sec) 
Heartbeat CPU 0 instructions: 460000002 cycles: 1162933704 heartbeat IPC: 0.33407 cumulative IPC: 0.325181 (Simulation time: 0 hr 21 min 55 sec) 
Heartbeat CPU 0 instructions: 470000002 cycles: 1193602542 heartbeat IPC: 0.326064 cumulative IPC: 0.325205 (Simulation time: 0 hr 22 min 24 sec) 
Heartbeat CPU 0 instructions: 480000000 cycles: 1224304025 heartbeat IPC: 0.325717 cumulative IPC: 0.325218 (Simulation time: 0 hr 22 min 53 sec) 
Heartbeat CPU 0 instructions: 490000000 cycles: 1254805413 heartbeat IPC: 0.327854 cumulative IPC: 0.325285 (Simulation time: 0 hr 23 min 22 sec) 
Heartbeat CPU 0 instructions: 500000000 cycles: 1285099041 heartbeat IPC: 0.330102 cumulative IPC: 0.325404 (Simulation time: 0 hr 23 min 50 sec) 
Heartbeat CPU 0 instructions: 510000003 cycles: 1315641934 heartbeat IPC: 0.327408 cumulative IPC: 0.325453 (Simulation time: 0 hr 24 min 19 sec) 
Heartbeat CPU 0 instructions: 520000003 cycles: 1345929211 heartbeat IPC: 0.330172 cumulative IPC: 0.325563 (Simulation time: 0 hr 24 min 48 sec) 
Heartbeat CPU 0 instructions: 530000001 cycles: 1376838263 heartbeat IPC: 0.32353 cumulative IPC: 0.325516 (Simulation time: 0 hr 25 min 17 sec) 
Heartbeat CPU 0 instructions: 540000001 cycles: 1406884855 heartbeat IPC: 0.332816 cumulative IPC: 0.325678 (Simulation time: 0 hr 25 min 45 sec) 
Heartbeat CPU 0 instructions: 550000000 cycles: 1437815788 heartbeat IPC: 0.323301 cumulative IPC: 0.325625 (Simulation time: 0 hr 26 min 14 sec) 
Heartbeat CPU 0 instructions: 560000000 cycles: 1468858634 heartbeat IPC: 0.322135 cumulative IPC: 0.325548 (Simulation time: 0 hr 26 min 43 sec) 
Heartbeat CPU 0 instructions: 570000002 cycles: 1499265754 heartbeat IPC: 0.32887 cumulative IPC: 0.325618 (Simulation time: 0 hr 27 min 12 sec) 
Heartbeat CPU 0 instructions: 580000000 cycles: 1529563178 heartbeat IPC: 0.330061 cumulative IPC: 0.32571 (Simulation time: 0 hr 27 min 40 sec) 
Heartbeat CPU 0 instructions: 590000002 cycles: 1560544957 heartbeat IPC: 0.32277 cumulative IPC: 0.325649 (Simulation time: 0 hr 28 min 9 sec) 
Heartbeat CPU 0 instructions: 600000000 cycles: 1591243388 heartbeat IPC: 0.325749 cumulative IPC: 0.325651 (Simulation time: 0 hr 28 min 38 sec) 
Heartbeat CPU 0 instructions: 610000000 cycles: 1621815425 heartbeat IPC: 0.327096 cumulative IPC: 0.325679 (Simulation time: 0 hr 29 min 6 sec) 
Heartbeat CPU 0 instructions: 620000000 cycles: 1653275348 heartbeat IPC: 0.317865 cumulative IPC: 0.325525 (Simulation time: 0 hr 29 min 35 sec) 
Heartbeat CPU 0 instructions: 630000001 cycles: 1684013832 heartbeat IPC: 0.325325 cumulative IPC: 0.325522 (Simulation time: 0 hr 30 min 4 sec) 
Heartbeat CPU 0 instructions: 640000003 cycles: 1714575760 heartbeat IPC: 0.327205 cumulative IPC: 0.325553 (Simulation time: 0 hr 30 min 33 sec) 
Heartbeat CPU 0 instructions: 650000000 cycles: 1745535644 heartbeat IPC: 0.322999 cumulative IPC: 0.325506 (Simulation time: 0 hr 31 min 2 sec) 
Heartbeat CPU 0 instructions: 660000000 cycles: 1776213738 heartbeat IPC: 0.325965 cumulative IPC: 0.325514 (Simulation time: 0 hr 31 min 31 sec) 
Heartbeat CPU 0 instructions: 670000000 cycles: 1806981594 heartbeat IPC: 0.325015 cumulative IPC: 0.325505 (Simulation time: 0 hr 32 min 0 sec) 
Heartbeat CPU 0 instructions: 680000001 cycles: 1837646105 heartbeat IPC: 0.32611 cumulative IPC: 0.325516 (Simulation time: 0 hr 32 min 29 sec) 
Heartbeat CPU 0 instructions: 690000001 cycles: 1868629964 heartbeat IPC: 0.322749 cumulative IPC: 0.325468 (Simulation time: 0 hr 32 min 57 sec) 
Heartbeat CPU 0 instructions: 700000000 cycles: 1899109157 heartbeat IPC: 0.328093 cumulative IPC: 0.325512 (Simulation time: 0 hr 33 min 26 sec) 
Heartbeat CPU 0 instructions: 710000001 cycles: 1929576918 heartbeat IPC: 0.328216 cumulative IPC: 0.325556 (Simulation time: 0 hr 33 min 54 sec) 
Heartbeat CPU 0 instructions: 720000001 cycles: 1960520155 heartbeat IPC: 0.323172 cumulative IPC: 0.325517 (Simulation time: 0 hr 34 min 24 sec) 
Heartbeat CPU 0 instructions: 730000001 cycles: 1991424019 heartbeat IPC: 0.323584 cumulative IPC: 0.325486 (Simulation time: 0 hr 34 min 52 sec) 
Heartbeat CPU 0 instructions: 740000001 cycles: 2022528049 heartbeat IPC: 0.321502 cumulative IPC: 0.325423 (Simulation time: 0 hr 35 min 21 sec) 
Heartbeat CPU 0 instructions: 750000002 cycles: 2053594745 heartbeat IPC: 0.321888 cumulative IPC: 0.325368 (Simulation time: 0 hr 35 min 50 sec) 
Heartbeat CPU 0 instructions: 760000002 cycles: 2084078273 heartbeat IPC: 0.328046 cumulative IPC: 0.325408 (Simulation time: 0 hr 36 min 19 sec) 
Heartbeat CPU 0 instructions: 770000000 cycles: 2115490374 heartbeat IPC: 0.318349 cumulative IPC: 0.325301 (Simulation time: 0 hr 36 min 48 sec) 
Heartbeat CPU 0 instructions: 780000000 cycles: 2146537038 heartbeat IPC: 0.322096 cumulative IPC: 0.325253 (Simulation time: 0 hr 37 min 17 sec) 
Heartbeat CPU 0 instructions: 790000001 cycles: 2178619597 heartbeat IPC: 0.311696 cumulative IPC: 0.325048 (Simulation time: 0 hr 37 min 46 sec) 
Heartbeat CPU 0 instructions: 800000002 cycles: 2209402916 heartbeat IPC: 0.324851 cumulative IPC: 0.325045 (Simulation time: 0 hr 38 min 15 sec) 
Heartbeat CPU 0 instructions: 810000001 cycles: 2240610888 heartbeat IPC: 0.320431 cumulative IPC: 0.32498 (Simulation time: 0 hr 38 min 44 sec) 
Heartbeat CPU 0 instructions: 820000003 cycles: 2271421444 heartbeat IPC: 0.324564 cumulative IPC: 0.324974 (Simulation time: 0 hr 39 min 12 sec) 
Heartbeat CPU 0 instructions: 830000000 cycles: 2303093402 heartbeat IPC: 0.315737 cumulative IPC: 0.324844 (Simulation time: 0 hr 39 min 41 sec) 
Heartbeat CPU 0 instructions: 840000003 cycles: 2334520678 heartbeat IPC: 0.318195 cumulative IPC: 0.324752 (Simulation time: 0 hr 40 min 10 sec) 
Heartbeat CPU 0 instructions: 850000000 cycles: 2365814556 heartbeat IPC: 0.319551 cumulative IPC: 0.324681 (Simulation time: 0 hr 40 min 39 sec) 
Heartbeat CPU 0 instructions: 860000000 cycles: 2397198252 heartbeat IPC: 0.318637 cumulative IPC: 0.3246 (Simulation time: 0 hr 41 min 8 sec) 
Heartbeat CPU 0 instructions: 870000001 cycles: 2429038315 heartbeat IPC: 0.31407 cumulative IPC: 0.324459 (Simulation time: 0 hr 41 min 37 sec) 
Heartbeat CPU 0 instructions: 880000000 cycles: 2459850160 heartbeat IPC: 0.32455 cumulative IPC: 0.32446 (Simulation time: 0 hr 42 min 6 sec) 
Heartbeat CPU 0 instructions: 890000000 cycles: 2491007387 heartbeat IPC: 0.320953 cumulative IPC: 0.324415 (Simulation time: 0 hr 42 min 35 sec) 
Heartbeat CPU 0 instructions: 900000001 cycles: 2521872015 heartbeat IPC: 0.323996 cumulative IPC: 0.32441 (Simulation time: 0 hr 43 min 4 sec) 
Heartbeat CPU 0 instructions: 910000000 cycles: 2552960187 heartbeat IPC: 0.321666 cumulative IPC: 0.324376 (Simulation time: 0 hr 43 min 32 sec) 
Heartbeat CPU 0 instructions: 920000001 cycles: 2584061442 heartbeat IPC: 0.32153 cumulative IPC: 0.324341 (Simulation time: 0 hr 44 min 1 sec) 
Heartbeat CPU 0 instructions: 930000003 cycles: 2615124826 heartbeat IPC: 0.321922 cumulative IPC: 0.324312 (Simulation time: 0 hr 44 min 30 sec) 
Heartbeat CPU 0 instructions: 940000002 cycles: 2645699205 heartbeat IPC: 0.327071 cumulative IPC: 0.324344 (Simulation time: 0 hr 44 min 58 sec) 
Heartbeat CPU 0 instructions: 950000000 cycles: 2676707840 heartbeat IPC: 0.322491 cumulative IPC: 0.324322 (Simulation time: 0 hr 45 min 27 sec) 
Heartbeat CPU 0 instructions: 960000003 cycles: 2707381534 heartbeat IPC: 0.326012 cumulative IPC: 0.324342 (Simulation time: 0 hr 45 min 56 sec) 
Heartbeat CPU 0 instructions: 970000000 cycles: 2738240595 heartbeat IPC: 0.324054 cumulative IPC: 0.324338 (Simulation time: 0 hr 46 min 25 sec) 
Heartbeat CPU 0 instructions: 980000000 cycles: 2769598654 heartbeat IPC: 0.318897 cumulative IPC: 0.324276 (Simulation time: 0 hr 46 min 54 sec) 
Heartbeat CPU 0 instructions: 990000000 cycles: 2800251937 heartbeat IPC: 0.326229 cumulative IPC: 0.324297 (Simulation time: 0 hr 47 min 22 sec) 
Heartbeat CPU 0 instructions: 1000000000 cycles: 2830873342 heartbeat IPC: 0.326569 cumulative IPC: 0.324323 (Simulation time: 0 hr 47 min 51 sec) 
Heartbeat CPU 0 instructions: 1010000001 cycles: 2861657322 heartbeat IPC: 0.324844 cumulative IPC: 0.324328 (Simulation time: 0 hr 48 min 20 sec) 
Heartbeat CPU 0 instructions: 1020000001 cycles: 2892683370 heartbeat IPC: 0.32231 cumulative IPC: 0.324306 (Simulation time: 0 hr 48 min 48 sec) 
Heartbeat CPU 0 instructions: 1030000002 cycles: 2924588306 heartbeat IPC: 0.313431 cumulative IPC: 0.324185 (Simulation time: 0 hr 49 min 18 sec) 
Heartbeat CPU 0 instructions: 1040000000 cycles: 2955679685 heartbeat IPC: 0.321633 cumulative IPC: 0.324158 (Simulation time: 0 hr 49 min 46 sec) 
Heartbeat CPU 0 instructions: 1050000003 cycles: 2986740668 heartbeat IPC: 0.321947 cumulative IPC: 0.324134 (Simulation time: 0 hr 50 min 15 sec) 
Heartbeat CPU 0 instructions: 1060000002 cycles: 3018032580 heartbeat IPC: 0.319571 cumulative IPC: 0.324086 (Simulation time: 0 hr 50 min 44 sec) 
Heartbeat CPU 0 instructions: 1070000002 cycles: 3049729555 heartbeat IPC: 0.315488 cumulative IPC: 0.323995 (Simulation time: 0 hr 51 min 13 sec) 
Heartbeat CPU 0 instructions: 1080000000 cycles: 3080706069 heartbeat IPC: 0.322825 cumulative IPC: 0.323983 (Simulation time: 0 hr 51 min 41 sec) 
Heartbeat CPU 0 instructions: 1090000003 cycles: 3111546479 heartbeat IPC: 0.32425 cumulative IPC: 0.323986 (Simulation time: 0 hr 52 min 10 sec) 
Heartbeat CPU 0 instructions: 1100000000 cycles: 3142382709 heartbeat IPC: 0.324294 cumulative IPC: 0.323989 (Simulation time: 0 hr 52 min 39 sec) 
Finished CPU 0 instructions: 1000000002 cycles: 3086524892 cumulative IPC: 0.323989 (Simulation time: 0 hr 52 min 39 sec) 

ChampSim completed all CPUs

Region of Interest Statistics

CPU 0 cumulative IPC: 0.323989 instructions: 1000000002 cycles: 3086524892
L1D TOTAL     ACCESS:  424126794  HIT:  404116607  MISS:   20010187
L1D LOAD      ACCESS:  245671008  HIT:  228173735  MISS:   17497273
L1D RFO       ACCESS:  178455786  HIT:  175942872  MISS:    2512914
L1D PREFETCH  ACCESS:          0  HIT:          0  MISS:          0
L1D WRITEBACK ACCESS:          0  HIT:          0  MISS:          0
L1D PREFETCH  REQUESTED:          0  ISSUED:          0  USEFUL:          0  USELESS:          0
L1D AVERAGE MISS LATENCY: 136.808 cycles
L1I TOTAL     ACCESS:  177929200  HIT:  177542287  MISS:     386913
L1I LOAD      ACCESS:  177929200  HIT:  177542287  MISS:     386913
L1I RFO       ACCESS:          0  HIT:          0  MISS:          0
L1I PREFETCH  ACCESS:          0  HIT:          0  MISS:          0
L1I WRITEBACK ACCESS:          0  HIT:          0  MISS:          0
L1I PREFETCH  REQUESTED:          0  ISSUED:          0  USEFUL:          0  USELESS:          0
L1I AVERAGE MISS LATENCY: 33.6797 cycles
L2C TOTAL     ACCESS:   30061782  HIT:   15599949  MISS:   14461833
L2C LOAD      ACCESS:   17883402  HIT:    5452999  MISS:   12430403
L2C RFO       ACCESS:    2512860  HIT:     511847  MISS:    2001013
L2C PREFETCH  ACCESS:          0  HIT:          0  MISS:          0
L2C WRITEBACK ACCESS:    9665520  HIT:    9635103  MISS:      30417
L2C PREFETCH  REQUESTED:          0  ISSUED:          0  USEFUL:          0  USELESS:          0
L2C AVERAGE MISS LATENCY: 168.432 cycles
LLC TOTAL     ACCESS:   21668590  HIT:    9030489  MISS:   12638101
LLC LOAD      ACCESS:   12430336  HIT:    3450404  MISS:    8979932
LLC RFO       ACCESS:    2001000  HIT:     838897  MISS:    1162103
LLC PREFETCH  ACCESS:          0  HIT:          0  MISS:          0
LLC WRITEBACK ACCESS:    7237254  HIT:    4741188  MISS:    2496066
LLC PREFETCH  REQUESTED:          0  ISSUED:          0  USEFUL:          0  USELESS:          0
LLC AVERAGE MISS LATENCY: 143.375 cycles
Major fault: 0 Minor fault: 51779
==============================
Perceptron RRIP Stats:
   Num Updates:          23793450
   Num Primary Trains:   4311979
   Num Secondary Trains: 4264991
==============================
primary_perceptron #0: 3 -3 3 1 1 1 -1 1 -1 -7 1 1 1 -1 1 -5 
secondary_perceptron #0: -1 -5 1 1 5 3 -1 3 1 -9 1 1 -1 3 1 1 1 3 1 -3 -7 


DRAM Statistics
 CHANNEL 0
 RQ ROW_BUFFER_HIT:     855373  ROW_BUFFER_MISS:    9286607
 DBUS_CONGESTED:    2559630
 WQ ROW_BUFFER_HIT:    1015324  ROW_BUFFER_MISS:    3686056  FULL:          0

 AVG_CONGESTED_CYCLE: 6

CPU 0 Branch Prediction Accuracy: 95.7698% MPKI: 8.79501 Average ROB Occupancy at Mispredict: 77.3531

Branch types
NOT_BRANCH: 792090406 79.209%
BRANCH_DIRECT_JUMP: 11386471 1.13865%
BRANCH_INDIRECT: 3364042 0.336404%
BRANCH_CONDITIONAL: 133667621 13.3668%
BRANCH_DIRECT_CALL: 17787880 1.77879%
BRANCH_INDIRECT_CALL: 11957676 1.19577%
BRANCH_RETURN: 29745554 2.97456%
BRANCH_OTHER: 0 0%

