
*** ChampSim Multicore Out-of-Order Simulator ***

Warmup Instructions: 100000000
Simulation Instructions: 1000000000
Number of CPUs: 1
LLC sets: 2048
LLC ways: 16
Off-chip DRAM Size: 4096 MB Channels: 1 Width: 64-bit Data Rate: 3200 MT/s

CPU 0 runs /scratch/user/kevin.weston/dpc3-traces/621.champsimtrace.xz
CPU 0 Bimodal branch predictor
Initialize SHIP state
Assign rand_sets[0]: 454  LLC: 2048
rand_sets[0]: 454
Assign rand_sets[1]: 1662  LLC: 2048
rand_sets[1]: 1662
Assign rand_sets[2]: 1921  LLC: 2048
rand_sets[2]: 1921
Assign rand_sets[3]: 1131  LLC: 2048
rand_sets[3]: 1131
Assign rand_sets[4]: 331  LLC: 2048
rand_sets[4]: 331
Assign rand_sets[5]: 1531  LLC: 2048
rand_sets[5]: 1531
Assign rand_sets[6]: 482  LLC: 2048
rand_sets[6]: 482
Assign rand_sets[7]: 1275  LLC: 2048
rand_sets[7]: 1275
Assign rand_sets[8]: 1876  LLC: 2048
rand_sets[8]: 1876
Assign rand_sets[9]: 2038  LLC: 2048
rand_sets[9]: 2038
Assign rand_sets[10]: 701  LLC: 2048
rand_sets[10]: 701
Assign rand_sets[11]: 479  LLC: 2048
rand_sets[11]: 479
Assign rand_sets[12]: 892  LLC: 2048
rand_sets[12]: 892
Assign rand_sets[13]: 1820  LLC: 2048
rand_sets[13]: 1820
Assign rand_sets[14]: 1505  LLC: 2048
rand_sets[14]: 1505
Assign rand_sets[15]: 1159  LLC: 2048
rand_sets[15]: 1159
Assign rand_sets[16]: 513  LLC: 2048
rand_sets[16]: 513
Assign rand_sets[17]: 703  LLC: 2048
rand_sets[17]: 703
Assign rand_sets[18]: 561  LLC: 2048
rand_sets[18]: 561
Assign rand_sets[19]: 990  LLC: 2048
rand_sets[19]: 990
Assign rand_sets[20]: 342  LLC: 2048
rand_sets[20]: 342
Assign rand_sets[21]: 882  LLC: 2048
rand_sets[21]: 882
Assign rand_sets[22]: 15  LLC: 2048
rand_sets[22]: 15
Assign rand_sets[23]: 71  LLC: 2048
rand_sets[23]: 71
Assign rand_sets[24]: 1127  LLC: 2048
rand_sets[24]: 1127
Assign rand_sets[25]: 1382  LLC: 2048
rand_sets[25]: 1382
Assign rand_sets[26]: 647  LLC: 2048
rand_sets[26]: 647
Assign rand_sets[27]: 857  LLC: 2048
rand_sets[27]: 857
Assign rand_sets[28]: 1450  LLC: 2048
rand_sets[28]: 1450
Assign rand_sets[29]: 1160  LLC: 2048
rand_sets[29]: 1160
Assign rand_sets[30]: 1852  LLC: 2048
rand_sets[30]: 1852
Assign rand_sets[31]: 1881  LLC: 2048
rand_sets[31]: 1881
Assign rand_sets[32]: 1770  LLC: 2048
rand_sets[32]: 1770
Assign rand_sets[33]: 1622  LLC: 2048
rand_sets[33]: 1622
Assign rand_sets[34]: 275  LLC: 2048
rand_sets[34]: 275
Assign rand_sets[35]: 635  LLC: 2048
rand_sets[35]: 635
Assign rand_sets[36]: 466  LLC: 2048
rand_sets[36]: 466
Assign rand_sets[37]: 1413  LLC: 2048
rand_sets[37]: 1413
Assign rand_sets[38]: 417  LLC: 2048
rand_sets[38]: 417
Assign rand_sets[39]: 472  LLC: 2048
rand_sets[39]: 472
Assign rand_sets[40]: 1340  LLC: 2048
rand_sets[40]: 1340
Assign rand_sets[41]: 852  LLC: 2048
rand_sets[41]: 852
Assign rand_sets[42]: 1365  LLC: 2048
rand_sets[42]: 1365
Assign rand_sets[43]: 47  LLC: 2048
rand_sets[43]: 47
Assign rand_sets[44]: 823  LLC: 2048
rand_sets[44]: 823
Assign rand_sets[45]: 686  LLC: 2048
rand_sets[45]: 686
Assign rand_sets[46]: 1637  LLC: 2048
rand_sets[46]: 1637
Assign rand_sets[47]: 1115  LLC: 2048
rand_sets[47]: 1115
Assign rand_sets[48]: 986  LLC: 2048
rand_sets[48]: 986
Assign rand_sets[49]: 258  LLC: 2048
rand_sets[49]: 258
Assign rand_sets[50]: 633  LLC: 2048
rand_sets[50]: 633
Assign rand_sets[51]: 920  LLC: 2048
rand_sets[51]: 920
Assign rand_sets[52]: 204  LLC: 2048
rand_sets[52]: 204
Assign rand_sets[53]: 227  LLC: 2048
rand_sets[53]: 227
Assign rand_sets[54]: 1818  LLC: 2048
rand_sets[54]: 1818
Assign rand_sets[55]: 886  LLC: 2048
rand_sets[55]: 886
Assign rand_sets[56]: 1422  LLC: 2048
rand_sets[56]: 1422
Assign rand_sets[57]: 607  LLC: 2048
rand_sets[57]: 607
Assign rand_sets[58]: 217  LLC: 2048
rand_sets[58]: 217
Assign rand_sets[59]: 1945  LLC: 2048
rand_sets[59]: 1945
Assign rand_sets[60]: 143  LLC: 2048
rand_sets[60]: 143
Assign rand_sets[61]: 1311  LLC: 2048
rand_sets[61]: 1311
Assign rand_sets[62]: 319  LLC: 2048
rand_sets[62]: 319
Assign rand_sets[63]: 1846  LLC: 2048
rand_sets[63]: 1846
Assign rand_sets[64]: 238  LLC: 2048
rand_sets[64]: 238
Assign rand_sets[65]: 67  LLC: 2048
rand_sets[65]: 67
Assign rand_sets[66]: 1912  LLC: 2048
rand_sets[66]: 1912
Assign rand_sets[67]: 1613  LLC: 2048
rand_sets[67]: 1613
Assign rand_sets[68]: 1293  LLC: 2048
rand_sets[68]: 1293
Assign rand_sets[69]: 1018  LLC: 2048
rand_sets[69]: 1018
Assign rand_sets[70]: 1982  LLC: 2048
rand_sets[70]: 1982
Assign rand_sets[71]: 1702  LLC: 2048
rand_sets[71]: 1702
Assign rand_sets[72]: 1498  LLC: 2048
rand_sets[72]: 1498
Assign rand_sets[73]: 228  LLC: 2048
rand_sets[73]: 228
Assign rand_sets[74]: 1414  LLC: 2048
rand_sets[74]: 1414
Assign rand_sets[75]: 1166  LLC: 2048
rand_sets[75]: 1166
Assign rand_sets[76]: 732  LLC: 2048
rand_sets[76]: 732
Assign rand_sets[77]: 297  LLC: 2048
rand_sets[77]: 297
Assign rand_sets[78]: 1133  LLC: 2048
rand_sets[78]: 1133
Assign rand_sets[79]: 846  LLC: 2048
rand_sets[79]: 846
Assign rand_sets[80]: 767  LLC: 2048
rand_sets[80]: 767
Assign rand_sets[81]: 1878  LLC: 2048
rand_sets[81]: 1878
Assign rand_sets[82]: 993  LLC: 2048
rand_sets[82]: 993
Assign rand_sets[83]: 1392  LLC: 2048
rand_sets[83]: 1392
Assign rand_sets[84]: 1568  LLC: 2048
rand_sets[84]: 1568
Assign rand_sets[85]: 1787  LLC: 2048
rand_sets[85]: 1787
Assign rand_sets[86]: 399  LLC: 2048
rand_sets[86]: 399
Assign rand_sets[87]: 1201  LLC: 2048
rand_sets[87]: 1201
Assign rand_sets[88]: 856  LLC: 2048
rand_sets[88]: 856
Assign rand_sets[89]: 773  LLC: 2048
rand_sets[89]: 773
Assign rand_sets[90]: 1680  LLC: 2048
rand_sets[90]: 1680
Assign rand_sets[91]: 1477  LLC: 2048
rand_sets[91]: 1477
Assign rand_sets[92]: 9  LLC: 2048
rand_sets[92]: 9
Assign rand_sets[93]: 1500  LLC: 2048
rand_sets[93]: 1500
Assign rand_sets[94]: 851  LLC: 2048
rand_sets[94]: 851
Assign rand_sets[95]: 973  LLC: 2048
rand_sets[95]: 973
Assign rand_sets[96]: 938  LLC: 2048
rand_sets[96]: 938
Assign rand_sets[97]: 1851  LLC: 2048
rand_sets[97]: 1851
Assign rand_sets[98]: 1608  LLC: 2048
rand_sets[98]: 1608
Assign rand_sets[99]: 1945  LLC: 2048
Assign rand_sets[99]: 1106  LLC: 2048
rand_sets[99]: 1106
Assign rand_sets[100]: 979  LLC: 2048
rand_sets[100]: 979
Assign rand_sets[101]: 338  LLC: 2048
rand_sets[101]: 338
Assign rand_sets[102]: 1693  LLC: 2048
rand_sets[102]: 1693
Assign rand_sets[103]: 6  LLC: 2048
rand_sets[103]: 6
Assign rand_sets[104]: 671  LLC: 2048
rand_sets[104]: 671
Assign rand_sets[105]: 490  LLC: 2048
rand_sets[105]: 490
Assign rand_sets[106]: 1461  LLC: 2048
rand_sets[106]: 1461
Assign rand_sets[107]: 1730  LLC: 2048
rand_sets[107]: 1730
Assign rand_sets[108]: 1030  LLC: 2048
rand_sets[108]: 1030
Assign rand_sets[109]: 19  LLC: 2048
rand_sets[109]: 19
Assign rand_sets[110]: 920  LLC: 2048
Assign rand_sets[110]: 329  LLC: 2048
rand_sets[110]: 329
Assign rand_sets[111]: 1714  LLC: 2048
rand_sets[111]: 1714
Assign rand_sets[112]: 1  LLC: 2048
rand_sets[112]: 1
Assign rand_sets[113]: 1822  LLC: 2048
rand_sets[113]: 1822
Assign rand_sets[114]: 172  LLC: 2048
rand_sets[114]: 172
Assign rand_sets[115]: 1586  LLC: 2048
rand_sets[115]: 1586
Assign rand_sets[116]: 648  LLC: 2048
rand_sets[116]: 648
Assign rand_sets[117]: 1329  LLC: 2048
rand_sets[117]: 1329
Assign rand_sets[118]: 668  LLC: 2048
rand_sets[118]: 668
Assign rand_sets[119]: 1874  LLC: 2048
rand_sets[119]: 1874
Assign rand_sets[120]: 70  LLC: 2048
rand_sets[120]: 70
Assign rand_sets[121]: 661  LLC: 2048
rand_sets[121]: 661
Assign rand_sets[122]: 1649  LLC: 2048
rand_sets[122]: 1649
Assign rand_sets[123]: 1590  LLC: 2048
rand_sets[123]: 1590
Assign rand_sets[124]: 911  LLC: 2048
rand_sets[124]: 911
Assign rand_sets[125]: 1367  LLC: 2048
rand_sets[125]: 1367
Assign rand_sets[126]: 1782  LLC: 2048
rand_sets[126]: 1782
Assign rand_sets[127]: 569  LLC: 2048
rand_sets[127]: 569
Heartbeat CPU 0 instructions: 10000000 cycles: 4328694 heartbeat IPC: 2.31017 cumulative IPC: 2.31017 (Simulation time: 0 hr 0 min 21 sec) 
Heartbeat CPU 0 instructions: 20000002 cycles: 8673385 heartbeat IPC: 2.30166 cumulative IPC: 2.30591 (Simulation time: 0 hr 0 min 41 sec) 
Heartbeat CPU 0 instructions: 30000000 cycles: 13029447 heartbeat IPC: 2.29565 cumulative IPC: 2.30248 (Simulation time: 0 hr 1 min 2 sec) 
Heartbeat CPU 0 instructions: 40000002 cycles: 17381326 heartbeat IPC: 2.29786 cumulative IPC: 2.30132 (Simulation time: 0 hr 1 min 22 sec) 
Heartbeat CPU 0 instructions: 50000002 cycles: 21731060 heartbeat IPC: 2.29899 cumulative IPC: 2.30085 (Simulation time: 0 hr 1 min 42 sec) 
Heartbeat CPU 0 instructions: 60000003 cycles: 26077316 heartbeat IPC: 2.30083 cumulative IPC: 2.30085 (Simulation time: 0 hr 2 min 2 sec) 
Heartbeat CPU 0 instructions: 70000000 cycles: 30419787 heartbeat IPC: 2.30284 cumulative IPC: 2.30113 (Simulation time: 0 hr 2 min 22 sec) 
Heartbeat CPU 0 instructions: 80000000 cycles: 34749580 heartbeat IPC: 2.30958 cumulative IPC: 2.30219 (Simulation time: 0 hr 2 min 42 sec) 
Heartbeat CPU 0 instructions: 90000000 cycles: 39094725 heartbeat IPC: 2.30142 cumulative IPC: 2.3021 (Simulation time: 0 hr 3 min 2 sec) 
Heartbeat CPU 0 instructions: 100000001 cycles: 43429709 heartbeat IPC: 2.30681 cumulative IPC: 2.30257 (Simulation time: 0 hr 3 min 22 sec) 

Warmup complete CPU 0 instructions: 100000001 cycles: 43429709 (Simulation time: 0 hr 3 min 22 sec) 

Heartbeat CPU 0 instructions: 110000000 cycles: 51878946 heartbeat IPC: 1.18354 cumulative IPC: 1.18354 (Simulation time: 0 hr 3 min 39 sec) 
Heartbeat CPU 0 instructions: 120000001 cycles: 60266737 heartbeat IPC: 1.19221 cumulative IPC: 1.18786 (Simulation time: 0 hr 3 min 55 sec) 
Heartbeat CPU 0 instructions: 130000000 cycles: 68698072 heartbeat IPC: 1.18605 cumulative IPC: 1.18726 (Simulation time: 0 hr 4 min 12 sec) 
Heartbeat CPU 0 instructions: 140000001 cycles: 77109304 heartbeat IPC: 1.18889 cumulative IPC: 1.18766 (Simulation time: 0 hr 4 min 28 sec) 
Heartbeat CPU 0 instructions: 150000000 cycles: 85400783 heartbeat IPC: 1.20606 cumulative IPC: 1.1913 (Simulation time: 0 hr 4 min 44 sec) 
Heartbeat CPU 0 instructions: 160000002 cycles: 93718970 heartbeat IPC: 1.20219 cumulative IPC: 1.1931 (Simulation time: 0 hr 5 min 1 sec) 
Heartbeat CPU 0 instructions: 170000001 cycles: 102009252 heartbeat IPC: 1.20623 cumulative IPC: 1.19496 (Simulation time: 0 hr 5 min 17 sec) 
Heartbeat CPU 0 instructions: 180000000 cycles: 110320974 heartbeat IPC: 1.20312 cumulative IPC: 1.19597 (Simulation time: 0 hr 5 min 33 sec) 
Heartbeat CPU 0 instructions: 190000003 cycles: 118670292 heartbeat IPC: 1.1977 cumulative IPC: 1.19616 (Simulation time: 0 hr 5 min 49 sec) 
Heartbeat CPU 0 instructions: 200000000 cycles: 127006980 heartbeat IPC: 1.19952 cumulative IPC: 1.1965 (Simulation time: 0 hr 6 min 6 sec) 
Heartbeat CPU 0 instructions: 210000001 cycles: 135248487 heartbeat IPC: 1.21337 cumulative IPC: 1.19801 (Simulation time: 0 hr 6 min 22 sec) 
Heartbeat CPU 0 instructions: 220000000 cycles: 143449887 heartbeat IPC: 1.2193 cumulative IPC: 1.19976 (Simulation time: 0 hr 6 min 38 sec) 
Heartbeat CPU 0 instructions: 230000001 cycles: 151696287 heartbeat IPC: 1.21265 cumulative IPC: 1.20074 (Simulation time: 0 hr 6 min 54 sec) 
Heartbeat CPU 0 instructions: 240000001 cycles: 160000002 heartbeat IPC: 1.20428 cumulative IPC: 1.20099 (Simulation time: 0 hr 7 min 10 sec) 
Heartbeat CPU 0 instructions: 250000001 cycles: 168325549 heartbeat IPC: 1.20112 cumulative IPC: 1.201 (Simulation time: 0 hr 7 min 26 sec) 
Heartbeat CPU 0 instructions: 260000000 cycles: 176648883 heartbeat IPC: 1.20144 cumulative IPC: 1.20103 (Simulation time: 0 hr 7 min 43 sec) 
Heartbeat CPU 0 instructions: 270000002 cycles: 184974027 heartbeat IPC: 1.20118 cumulative IPC: 1.20104 (Simulation time: 0 hr 7 min 59 sec) 
Heartbeat CPU 0 instructions: 280000002 cycles: 193270095 heartbeat IPC: 1.20539 cumulative IPC: 1.20128 (Simulation time: 0 hr 8 min 15 sec) 
Heartbeat CPU 0 instructions: 290000002 cycles: 201607183 heartbeat IPC: 1.19946 cumulative IPC: 1.20118 (Simulation time: 0 hr 8 min 32 sec) 
Heartbeat CPU 0 instructions: 300000002 cycles: 209913479 heartbeat IPC: 1.20391 cumulative IPC: 1.20132 (Simulation time: 0 hr 8 min 48 sec) 
Heartbeat CPU 0 instructions: 310000002 cycles: 218161948 heartbeat IPC: 1.21235 cumulative IPC: 1.20184 (Simulation time: 0 hr 9 min 4 sec) 
Heartbeat CPU 0 instructions: 320000000 cycles: 226534959 heartbeat IPC: 1.19431 cumulative IPC: 1.20149 (Simulation time: 0 hr 9 min 21 sec) 
Heartbeat CPU 0 instructions: 330000000 cycles: 234864905 heartbeat IPC: 1.20049 cumulative IPC: 1.20145 (Simulation time: 0 hr 9 min 37 sec) 
Heartbeat CPU 0 instructions: 340000000 cycles: 243657070 heartbeat IPC: 1.13738 cumulative IPC: 1.19864 (Simulation time: 0 hr 9 min 58 sec) 
Heartbeat CPU 0 instructions: 350000000 cycles: 252392664 heartbeat IPC: 1.14474 cumulative IPC: 1.19638 (Simulation time: 0 hr 10 min 17 sec) 
Heartbeat CPU 0 instructions: 360000001 cycles: 261035541 heartbeat IPC: 1.15702 cumulative IPC: 1.19482 (Simulation time: 0 hr 10 min 36 sec) 
Heartbeat CPU 0 instructions: 370000000 cycles: 269619840 heartbeat IPC: 1.16492 cumulative IPC: 1.19369 (Simulation time: 0 hr 10 min 55 sec) 
Heartbeat CPU 0 instructions: 380000003 cycles: 278192226 heartbeat IPC: 1.16654 cumulative IPC: 1.19269 (Simulation time: 0 hr 11 min 14 sec) 
Heartbeat CPU 0 instructions: 390000000 cycles: 288400513 heartbeat IPC: 0.979596 cumulative IPC: 1.18381 (Simulation time: 0 hr 11 min 36 sec) 
Heartbeat CPU 0 instructions: 400000002 cycles: 296008527 heartbeat IPC: 1.3144 cumulative IPC: 1.18775 (Simulation time: 0 hr 11 min 55 sec) 
Heartbeat CPU 0 instructions: 410000001 cycles: 303741702 heartbeat IPC: 1.29313 cumulative IPC: 1.19088 (Simulation time: 0 hr 12 min 13 sec) 
Heartbeat CPU 0 instructions: 420000000 cycles: 311403298 heartbeat IPC: 1.30521 cumulative IPC: 1.19415 (Simulation time: 0 hr 12 min 31 sec) 
Heartbeat CPU 0 instructions: 430000002 cycles: 319142969 heartbeat IPC: 1.29204 cumulative IPC: 1.1969 (Simulation time: 0 hr 12 min 49 sec) 
Heartbeat CPU 0 instructions: 440000000 cycles: 326875770 heartbeat IPC: 1.29319 cumulative IPC: 1.19952 (Simulation time: 0 hr 13 min 7 sec) 
Heartbeat CPU 0 instructions: 450000000 cycles: 334724399 heartbeat IPC: 1.27411 cumulative IPC: 1.20153 (Simulation time: 0 hr 13 min 25 sec) 
Heartbeat CPU 0 instructions: 460000000 cycles: 342430010 heartbeat IPC: 1.29776 cumulative IPC: 1.20401 (Simulation time: 0 hr 13 min 43 sec) 
Heartbeat CPU 0 instructions: 470000003 cycles: 350024583 heartbeat IPC: 1.31673 cumulative IPC: 1.2068 (Simulation time: 0 hr 14 min 1 sec) 
Heartbeat CPU 0 instructions: 480000000 cycles: 357783123 heartbeat IPC: 1.2889 cumulative IPC: 1.20883 (Simulation time: 0 hr 14 min 19 sec) 
Heartbeat CPU 0 instructions: 490000000 cycles: 367334349 heartbeat IPC: 1.04699 cumulative IPC: 1.20406 (Simulation time: 0 hr 14 min 41 sec) 
Heartbeat CPU 0 instructions: 500000001 cycles: 377312021 heartbeat IPC: 1.00224 cumulative IPC: 1.19803 (Simulation time: 0 hr 15 min 6 sec) 
Heartbeat CPU 0 instructions: 510000001 cycles: 387215953 heartbeat IPC: 1.0097 cumulative IPC: 1.1926 (Simulation time: 0 hr 15 min 31 sec) 
Heartbeat CPU 0 instructions: 520000000 cycles: 397124781 heartbeat IPC: 1.0092 cumulative IPC: 1.18746 (Simulation time: 0 hr 15 min 57 sec) 
Heartbeat CPU 0 instructions: 530000002 cycles: 406927692 heartbeat IPC: 1.02011 cumulative IPC: 1.18295 (Simulation time: 0 hr 16 min 22 sec) 
Heartbeat CPU 0 instructions: 540000001 cycles: 416697250 heartbeat IPC: 1.02359 cumulative IPC: 1.17878 (Simulation time: 0 hr 16 min 47 sec) 
Heartbeat CPU 0 instructions: 550000000 cycles: 426465678 heartbeat IPC: 1.02371 cumulative IPC: 1.17482 (Simulation time: 0 hr 17 min 12 sec) 
Heartbeat CPU 0 instructions: 560000000 cycles: 436336102 heartbeat IPC: 1.01313 cumulative IPC: 1.17076 (Simulation time: 0 hr 17 min 37 sec) 
Heartbeat CPU 0 instructions: 570000003 cycles: 446209258 heartbeat IPC: 1.01285 cumulative IPC: 1.16689 (Simulation time: 0 hr 18 min 2 sec) 
Heartbeat CPU 0 instructions: 580000000 cycles: 456061258 heartbeat IPC: 1.01502 cumulative IPC: 1.16327 (Simulation time: 0 hr 18 min 27 sec) 
Heartbeat CPU 0 instructions: 590000000 cycles: 465854868 heartbeat IPC: 1.02107 cumulative IPC: 1.15997 (Simulation time: 0 hr 18 min 52 sec) 
Heartbeat CPU 0 instructions: 600000001 cycles: 475597837 heartbeat IPC: 1.02638 cumulative IPC: 1.15696 (Simulation time: 0 hr 19 min 16 sec) 
Heartbeat CPU 0 instructions: 610000000 cycles: 485470393 heartbeat IPC: 1.01291 cumulative IPC: 1.15374 (Simulation time: 0 hr 19 min 42 sec) 
Heartbeat CPU 0 instructions: 620000003 cycles: 500588360 heartbeat IPC: 0.661465 cumulative IPC: 1.13746 (Simulation time: 0 hr 20 min 7 sec) 
Heartbeat CPU 0 instructions: 630000001 cycles: 516575351 heartbeat IPC: 0.625508 cumulative IPC: 1.12016 (Simulation time: 0 hr 20 min 33 sec) 
Heartbeat CPU 0 instructions: 640000001 cycles: 531642075 heartbeat IPC: 0.663714 cumulative IPC: 1.10608 (Simulation time: 0 hr 21 min 1 sec) 
Heartbeat CPU 0 instructions: 650000001 cycles: 549510687 heartbeat IPC: 0.559641 cumulative IPC: 1.08678 (Simulation time: 0 hr 21 min 29 sec) 
Heartbeat CPU 0 instructions: 660000000 cycles: 562751100 heartbeat IPC: 0.755263 cumulative IPC: 1.07833 (Simulation time: 0 hr 21 min 57 sec) 
Heartbeat CPU 0 instructions: 670000003 cycles: 576432868 heartbeat IPC: 0.7309 cumulative IPC: 1.06941 (Simulation time: 0 hr 22 min 25 sec) 
Heartbeat CPU 0 instructions: 680000003 cycles: 597698998 heartbeat IPC: 0.470231 cumulative IPC: 1.04642 (Simulation time: 0 hr 22 min 58 sec) 
Heartbeat CPU 0 instructions: 690000000 cycles: 605307032 heartbeat IPC: 1.3144 cumulative IPC: 1.05005 (Simulation time: 0 hr 23 min 22 sec) 
Heartbeat CPU 0 instructions: 700000000 cycles: 614820063 heartbeat IPC: 1.05119 cumulative IPC: 1.05007 (Simulation time: 0 hr 23 min 47 sec) 
Heartbeat CPU 0 instructions: 710000002 cycles: 624460001 heartbeat IPC: 1.03735 cumulative IPC: 1.04986 (Simulation time: 0 hr 24 min 12 sec) 
Heartbeat CPU 0 instructions: 720000000 cycles: 633426889 heartbeat IPC: 1.11521 cumulative IPC: 1.05085 (Simulation time: 0 hr 24 min 36 sec) 
Heartbeat CPU 0 instructions: 730000003 cycles: 642610470 heartbeat IPC: 1.0889 cumulative IPC: 1.05144 (Simulation time: 0 hr 25 min 1 sec) 
Heartbeat CPU 0 instructions: 740000001 cycles: 654727103 heartbeat IPC: 0.825312 cumulative IPC: 1.04695 (Simulation time: 0 hr 25 min 27 sec) 
Heartbeat CPU 0 instructions: 750000003 cycles: 675013672 heartbeat IPC: 0.492937 cumulative IPC: 1.02916 (Simulation time: 0 hr 26 min 0 sec) 
Heartbeat CPU 0 instructions: 760000001 cycles: 690642021 heartbeat IPC: 0.639863 cumulative IPC: 1.01976 (Simulation time: 0 hr 26 min 31 sec) 
Heartbeat CPU 0 instructions: 770000000 cycles: 712658776 heartbeat IPC: 0.454199 cumulative IPC: 1.00115 (Simulation time: 0 hr 27 min 3 sec) 
Heartbeat CPU 0 instructions: 780000003 cycles: 726825557 heartbeat IPC: 0.705877 cumulative IPC: 0.995031 (Simulation time: 0 hr 27 min 32 sec) 
Heartbeat CPU 0 instructions: 790000003 cycles: 739423740 heartbeat IPC: 0.793765 cumulative IPC: 0.991388 (Simulation time: 0 hr 27 min 59 sec) 
Heartbeat CPU 0 instructions: 800000003 cycles: 755623749 heartbeat IPC: 0.617284 cumulative IPC: 0.982878 (Simulation time: 0 hr 28 min 29 sec) 
Heartbeat CPU 0 instructions: 810000000 cycles: 778096280 heartbeat IPC: 0.444988 cumulative IPC: 0.966425 (Simulation time: 0 hr 29 min 3 sec) 
Heartbeat CPU 0 instructions: 820000001 cycles: 807764502 heartbeat IPC: 0.337061 cumulative IPC: 0.941996 (Simulation time: 0 hr 29 min 42 sec) 
Heartbeat CPU 0 instructions: 830000003 cycles: 824702132 heartbeat IPC: 0.590401 cumulative IPC: 0.934373 (Simulation time: 0 hr 30 min 10 sec) 
Heartbeat CPU 0 instructions: 840000001 cycles: 843832948 heartbeat IPC: 0.522717 cumulative IPC: 0.924534 (Simulation time: 0 hr 30 min 41 sec) 
Heartbeat CPU 0 instructions: 850000001 cycles: 872125372 heartbeat IPC: 0.353452 cumulative IPC: 0.905037 (Simulation time: 0 hr 31 min 21 sec) 
Heartbeat CPU 0 instructions: 860000003 cycles: 888255246 heartbeat IPC: 0.619968 cumulative IPC: 0.899594 (Simulation time: 0 hr 31 min 53 sec) 
Heartbeat CPU 0 instructions: 870000003 cycles: 896875353 heartbeat IPC: 1.16008 cumulative IPC: 0.902225 (Simulation time: 0 hr 32 min 17 sec) 
Heartbeat CPU 0 instructions: 880000000 cycles: 909296631 heartbeat IPC: 0.80507 cumulative IPC: 0.900831 (Simulation time: 0 hr 32 min 45 sec) 
Heartbeat CPU 0 instructions: 890000002 cycles: 916786651 heartbeat IPC: 1.33511 cumulative IPC: 0.904556 (Simulation time: 0 hr 33 min 8 sec) 
Heartbeat CPU 0 instructions: 900000002 cycles: 928178025 heartbeat IPC: 0.877857 cumulative IPC: 0.904212 (Simulation time: 0 hr 33 min 35 sec) 
Heartbeat CPU 0 instructions: 910000002 cycles: 935426517 heartbeat IPC: 1.3796 cumulative IPC: 0.908075 (Simulation time: 0 hr 33 min 58 sec) 
Heartbeat CPU 0 instructions: 920000002 cycles: 946576679 heartbeat IPC: 0.896848 cumulative IPC: 0.907936 (Simulation time: 0 hr 34 min 25 sec) 
Heartbeat CPU 0 instructions: 930000003 cycles: 953934859 heartbeat IPC: 1.35903 cumulative IPC: 0.911582 (Simulation time: 0 hr 34 min 48 sec) 
Heartbeat CPU 0 instructions: 940000003 cycles: 965002163 heartbeat IPC: 0.903562 cumulative IPC: 0.911486 (Simulation time: 0 hr 35 min 14 sec) 
Heartbeat CPU 0 instructions: 950000001 cycles: 972419058 heartbeat IPC: 1.34827 cumulative IPC: 0.914973 (Simulation time: 0 hr 35 min 38 sec) 
Heartbeat CPU 0 instructions: 960000001 cycles: 984177490 heartbeat IPC: 0.850454 cumulative IPC: 0.914166 (Simulation time: 0 hr 36 min 5 sec) 
Heartbeat CPU 0 instructions: 970000000 cycles: 991762244 heartbeat IPC: 1.31843 cumulative IPC: 0.9174 (Simulation time: 0 hr 36 min 28 sec) 
Heartbeat CPU 0 instructions: 980000003 cycles: 999318890 heartbeat IPC: 1.32334 cumulative IPC: 0.920609 (Simulation time: 0 hr 36 min 50 sec) 
Heartbeat CPU 0 instructions: 990000000 cycles: 1006867017 heartbeat IPC: 1.32483 cumulative IPC: 0.923776 (Simulation time: 0 hr 37 min 13 sec) 
Heartbeat CPU 0 instructions: 1000000000 cycles: 1021065561 heartbeat IPC: 0.704298 cumulative IPC: 0.920588 (Simulation time: 0 hr 37 min 39 sec) 
Heartbeat CPU 0 instructions: 1010000002 cycles: 1041833683 heartbeat IPC: 0.481507 cumulative IPC: 0.911455 (Simulation time: 0 hr 38 min 9 sec) 
Heartbeat CPU 0 instructions: 1020000002 cycles: 1049720479 heartbeat IPC: 1.26794 cumulative IPC: 0.914249 (Simulation time: 0 hr 38 min 34 sec) 
Heartbeat CPU 0 instructions: 1030000000 cycles: 1057779931 heartbeat IPC: 1.24078 cumulative IPC: 0.916843 (Simulation time: 0 hr 38 min 59 sec) 
Heartbeat CPU 0 instructions: 1040000001 cycles: 1068147337 heartbeat IPC: 0.964562 cumulative IPC: 0.917326 (Simulation time: 0 hr 39 min 25 sec) 
Heartbeat CPU 0 instructions: 1050000001 cycles: 1076631776 heartbeat IPC: 1.17863 cumulative IPC: 0.919472 (Simulation time: 0 hr 39 min 49 sec) 
Heartbeat CPU 0 instructions: 1060000001 cycles: 1084398220 heartbeat IPC: 1.28759 cumulative IPC: 0.922218 (Simulation time: 0 hr 40 min 13 sec) 
Heartbeat CPU 0 instructions: 1070000003 cycles: 1093506687 heartbeat IPC: 1.09788 cumulative IPC: 0.923742 (Simulation time: 0 hr 40 min 38 sec) 
Heartbeat CPU 0 instructions: 1080000002 cycles: 1109478861 heartbeat IPC: 0.626089 cumulative IPC: 0.919282 (Simulation time: 0 hr 41 min 9 sec) 
Heartbeat CPU 0 instructions: 1090000002 cycles: 1128327550 heartbeat IPC: 0.530541 cumulative IPC: 0.912528 (Simulation time: 0 hr 41 min 43 sec) 
Heartbeat CPU 0 instructions: 1100000000 cycles: 1145058410 heartbeat IPC: 0.597698 cumulative IPC: 0.907747 (Simulation time: 0 hr 42 min 14 sec) 
Finished CPU 0 instructions: 1000000000 cycles: 1101628945 cumulative IPC: 0.907747 (Simulation time: 0 hr 42 min 14 sec) 

ChampSim completed all CPUs

Region of Interest Statistics

CPU 0 cumulative IPC: 0.907747 instructions: 1000000000 cycles: 1101628945
L1D TOTAL     ACCESS:  245452737  HIT:  232146534  MISS:   13306203
L1D LOAD      ACCESS:  185774338  HIT:  176233331  MISS:    9541007
L1D RFO       ACCESS:   59678399  HIT:   55913203  MISS:    3765196
L1D PREFETCH  ACCESS:          0  HIT:          0  MISS:          0
L1D WRITEBACK ACCESS:          0  HIT:          0  MISS:          0
L1D PREFETCH  REQUESTED:          0  ISSUED:          0  USEFUL:          0  USELESS:          0
L1D AVERAGE MISS LATENCY: 134.814 cycles
L1I TOTAL     ACCESS:  171415712  HIT:  170712970  MISS:     702742
L1I LOAD      ACCESS:  171415712  HIT:  170712970  MISS:     702742
L1I RFO       ACCESS:          0  HIT:          0  MISS:          0
L1I PREFETCH  ACCESS:          0  HIT:          0  MISS:          0
L1I WRITEBACK ACCESS:          0  HIT:          0  MISS:          0
L1I PREFETCH  REQUESTED:          0  ISSUED:          0  USEFUL:          0  USELESS:          0
L1I AVERAGE MISS LATENCY: 21.4818 cycles
L2C TOTAL     ACCESS:   19730746  HIT:   12369772  MISS:    7360974
L2C LOAD      ACCESS:   10242867  HIT:    4590319  MISS:    5652548
L2C RFO       ACCESS:    3742804  HIT:    2041410  MISS:    1701394
L2C PREFETCH  ACCESS:          0  HIT:          0  MISS:          0
L2C WRITEBACK ACCESS:    5745075  HIT:    5738043  MISS:       7032
L2C PREFETCH  REQUESTED:          0  ISSUED:          0  USEFUL:          0  USELESS:          0
L2C AVERAGE MISS LATENCY: 221.833 cycles
LLC TOTAL     ACCESS:   10678382  HIT:    4508767  MISS:    6169615
LLC LOAD      ACCESS:    5652348  HIT:    1561447  MISS:    4090901
LLC RFO       ACCESS:    1701380  HIT:     442250  MISS:    1259130
LLC PREFETCH  ACCESS:          0  HIT:          0  MISS:          0
LLC WRITEBACK ACCESS:    3324654  HIT:    2505070  MISS:     819584
LLC PREFETCH  REQUESTED:          0  ISSUED:          0  USEFUL:          0  USELESS:          0
LLC AVERAGE MISS LATENCY: 216.212 cycles
Major fault: 0 Minor fault: 19417

DRAM Statistics
 CHANNEL 0
 RQ ROW_BUFFER_HIT:    1165647  ROW_BUFFER_MISS:    4183734
 DBUS_CONGESTED:    2524418
 WQ ROW_BUFFER_HIT:    1028341  ROW_BUFFER_MISS:    1325085  FULL:     163731

 AVG_CONGESTED_CYCLE: 6

CPU 0 Branch Prediction Accuracy: 97.1042% MPKI: 2.81547 Average ROB Occupancy at Mispredict: 108.658

Branch types
NOT_BRANCH: 902775037 90.2775%
BRANCH_DIRECT_JUMP: 4806588 0.480659%
BRANCH_INDIRECT: 59 5.9e-06%
BRANCH_CONDITIONAL: 81914089 8.19141%
BRANCH_DIRECT_CALL: 5252089 0.525209%
BRANCH_INDIRECT_CALL: 0 0%
BRANCH_RETURN: 5252094 0.525209%
BRANCH_OTHER: 0 0%

