
*** ChampSim Multicore Out-of-Order Simulator ***

Warmup Instructions: 100000000
Simulation Instructions: 1000000000
Number of CPUs: 1
LLC sets: 2048
LLC ways: 16
Off-chip DRAM Size: 4096 MB Channels: 1 Width: 64-bit Data Rate: 3200 MT/s

CPU 0 runs /scratch/user/kevin.weston/dpc3-traces/621.champsimtrace.xz
CPU 0 Bimodal branch predictor
Heartbeat CPU 0 instructions: 10000000 cycles: 4328694 heartbeat IPC: 2.31017 cumulative IPC: 2.31017 (Simulation time: 0 hr 0 min 21 sec) 
Heartbeat CPU 0 instructions: 20000002 cycles: 8673385 heartbeat IPC: 2.30166 cumulative IPC: 2.30591 (Simulation time: 0 hr 0 min 42 sec) 
Heartbeat CPU 0 instructions: 30000000 cycles: 13029447 heartbeat IPC: 2.29565 cumulative IPC: 2.30248 (Simulation time: 0 hr 1 min 4 sec) 
Heartbeat CPU 0 instructions: 40000002 cycles: 17381326 heartbeat IPC: 2.29786 cumulative IPC: 2.30132 (Simulation time: 0 hr 1 min 25 sec) 
Heartbeat CPU 0 instructions: 50000002 cycles: 21731060 heartbeat IPC: 2.29899 cumulative IPC: 2.30085 (Simulation time: 0 hr 1 min 46 sec) 
Heartbeat CPU 0 instructions: 60000003 cycles: 26077316 heartbeat IPC: 2.30083 cumulative IPC: 2.30085 (Simulation time: 0 hr 2 min 7 sec) 
Heartbeat CPU 0 instructions: 70000000 cycles: 30419787 heartbeat IPC: 2.30284 cumulative IPC: 2.30113 (Simulation time: 0 hr 2 min 28 sec) 
Heartbeat CPU 0 instructions: 80000000 cycles: 34749580 heartbeat IPC: 2.30958 cumulative IPC: 2.30219 (Simulation time: 0 hr 2 min 49 sec) 
Heartbeat CPU 0 instructions: 90000000 cycles: 39094725 heartbeat IPC: 2.30142 cumulative IPC: 2.3021 (Simulation time: 0 hr 3 min 10 sec) 
Heartbeat CPU 0 instructions: 100000001 cycles: 43429709 heartbeat IPC: 2.30681 cumulative IPC: 2.30257 (Simulation time: 0 hr 3 min 32 sec) 

Warmup complete CPU 0 instructions: 100000001 cycles: 43429709 (Simulation time: 0 hr 3 min 32 sec) 

Heartbeat CPU 0 instructions: 110000000 cycles: 51879182 heartbeat IPC: 1.18351 cumulative IPC: 1.18351 (Simulation time: 0 hr 3 min 49 sec) 
Heartbeat CPU 0 instructions: 120000001 cycles: 60267567 heartbeat IPC: 1.19212 cumulative IPC: 1.1878 (Simulation time: 0 hr 4 min 6 sec) 
Heartbeat CPU 0 instructions: 130000000 cycles: 68699336 heartbeat IPC: 1.18599 cumulative IPC: 1.1872 (Simulation time: 0 hr 4 min 23 sec) 
Heartbeat CPU 0 instructions: 140000001 cycles: 77110734 heartbeat IPC: 1.18886 cumulative IPC: 1.18761 (Simulation time: 0 hr 4 min 40 sec) 
Heartbeat CPU 0 instructions: 150000000 cycles: 85402543 heartbeat IPC: 1.20601 cumulative IPC: 1.19125 (Simulation time: 0 hr 4 min 57 sec) 
Heartbeat CPU 0 instructions: 160000002 cycles: 93721269 heartbeat IPC: 1.20211 cumulative IPC: 1.19304 (Simulation time: 0 hr 5 min 14 sec) 
Heartbeat CPU 0 instructions: 170000001 cycles: 102012108 heartbeat IPC: 1.20615 cumulative IPC: 1.1949 (Simulation time: 0 hr 5 min 30 sec) 
Heartbeat CPU 0 instructions: 180000000 cycles: 110323937 heartbeat IPC: 1.2031 cumulative IPC: 1.19592 (Simulation time: 0 hr 5 min 47 sec) 
Heartbeat CPU 0 instructions: 190000003 cycles: 118673555 heartbeat IPC: 1.19766 cumulative IPC: 1.19611 (Simulation time: 0 hr 6 min 4 sec) 
Heartbeat CPU 0 instructions: 200000000 cycles: 127010812 heartbeat IPC: 1.19943 cumulative IPC: 1.19644 (Simulation time: 0 hr 6 min 21 sec) 
Heartbeat CPU 0 instructions: 210000001 cycles: 135252274 heartbeat IPC: 1.21338 cumulative IPC: 1.19796 (Simulation time: 0 hr 6 min 37 sec) 
Heartbeat CPU 0 instructions: 220000000 cycles: 143453094 heartbeat IPC: 1.21939 cumulative IPC: 1.19972 (Simulation time: 0 hr 6 min 54 sec) 
Heartbeat CPU 0 instructions: 230000001 cycles: 151699293 heartbeat IPC: 1.21268 cumulative IPC: 1.20071 (Simulation time: 0 hr 7 min 11 sec) 
Heartbeat CPU 0 instructions: 240000001 cycles: 160002903 heartbeat IPC: 1.2043 cumulative IPC: 1.20096 (Simulation time: 0 hr 7 min 27 sec) 
Heartbeat CPU 0 instructions: 250000001 cycles: 168328050 heartbeat IPC: 1.20118 cumulative IPC: 1.20098 (Simulation time: 0 hr 7 min 44 sec) 
Heartbeat CPU 0 instructions: 260000000 cycles: 176650539 heartbeat IPC: 1.20156 cumulative IPC: 1.20101 (Simulation time: 0 hr 8 min 1 sec) 
Heartbeat CPU 0 instructions: 270000002 cycles: 184975388 heartbeat IPC: 1.20122 cumulative IPC: 1.20103 (Simulation time: 0 hr 8 min 17 sec) 
Heartbeat CPU 0 instructions: 280000002 cycles: 193271478 heartbeat IPC: 1.20539 cumulative IPC: 1.20127 (Simulation time: 0 hr 8 min 34 sec) 
Heartbeat CPU 0 instructions: 290000002 cycles: 201608262 heartbeat IPC: 1.1995 cumulative IPC: 1.20117 (Simulation time: 0 hr 8 min 50 sec) 
Heartbeat CPU 0 instructions: 300000002 cycles: 209914468 heartbeat IPC: 1.20392 cumulative IPC: 1.20131 (Simulation time: 0 hr 9 min 7 sec) 
Heartbeat CPU 0 instructions: 310000002 cycles: 218162810 heartbeat IPC: 1.21236 cumulative IPC: 1.20183 (Simulation time: 0 hr 9 min 24 sec) 
Heartbeat CPU 0 instructions: 320000000 cycles: 226536092 heartbeat IPC: 1.19427 cumulative IPC: 1.20149 (Simulation time: 0 hr 9 min 41 sec) 
Heartbeat CPU 0 instructions: 330000000 cycles: 234866167 heartbeat IPC: 1.20047 cumulative IPC: 1.20144 (Simulation time: 0 hr 9 min 57 sec) 
Heartbeat CPU 0 instructions: 340000000 cycles: 243656889 heartbeat IPC: 1.13756 cumulative IPC: 1.19864 (Simulation time: 0 hr 10 min 19 sec) 
Heartbeat CPU 0 instructions: 350000000 cycles: 252392399 heartbeat IPC: 1.14475 cumulative IPC: 1.19639 (Simulation time: 0 hr 10 min 39 sec) 
Heartbeat CPU 0 instructions: 360000001 cycles: 261038905 heartbeat IPC: 1.15654 cumulative IPC: 1.1948 (Simulation time: 0 hr 10 min 58 sec) 
Heartbeat CPU 0 instructions: 370000000 cycles: 269630651 heartbeat IPC: 1.16391 cumulative IPC: 1.19363 (Simulation time: 0 hr 11 min 18 sec) 
Heartbeat CPU 0 instructions: 380000003 cycles: 278204603 heartbeat IPC: 1.16632 cumulative IPC: 1.19263 (Simulation time: 0 hr 11 min 38 sec) 
Heartbeat CPU 0 instructions: 390000000 cycles: 288546388 heartbeat IPC: 0.966951 cumulative IPC: 1.18311 (Simulation time: 0 hr 12 min 1 sec) 
Heartbeat CPU 0 instructions: 400000002 cycles: 296118868 heartbeat IPC: 1.32057 cumulative IPC: 1.18723 (Simulation time: 0 hr 12 min 21 sec) 
Heartbeat CPU 0 instructions: 410000001 cycles: 303809300 heartbeat IPC: 1.30032 cumulative IPC: 1.19057 (Simulation time: 0 hr 12 min 40 sec) 
Heartbeat CPU 0 instructions: 420000000 cycles: 311498570 heartbeat IPC: 1.30051 cumulative IPC: 1.19372 (Simulation time: 0 hr 12 min 59 sec) 
Heartbeat CPU 0 instructions: 430000002 cycles: 319226268 heartbeat IPC: 1.29405 cumulative IPC: 1.19653 (Simulation time: 0 hr 13 min 18 sec) 
Heartbeat CPU 0 instructions: 440000000 cycles: 326936298 heartbeat IPC: 1.29701 cumulative IPC: 1.19927 (Simulation time: 0 hr 13 min 37 sec) 
Heartbeat CPU 0 instructions: 450000000 cycles: 334762128 heartbeat IPC: 1.27782 cumulative IPC: 1.20138 (Simulation time: 0 hr 13 min 55 sec) 
Heartbeat CPU 0 instructions: 460000000 cycles: 342443524 heartbeat IPC: 1.30185 cumulative IPC: 1.20396 (Simulation time: 0 hr 14 min 14 sec) 
Heartbeat CPU 0 instructions: 470000003 cycles: 350013588 heartbeat IPC: 1.32099 cumulative IPC: 1.20685 (Simulation time: 0 hr 14 min 34 sec) 
Heartbeat CPU 0 instructions: 480000000 cycles: 357772462 heartbeat IPC: 1.28885 cumulative IPC: 1.20887 (Simulation time: 0 hr 14 min 52 sec) 
Heartbeat CPU 0 instructions: 490000000 cycles: 367245151 heartbeat IPC: 1.05567 cumulative IPC: 1.20439 (Simulation time: 0 hr 15 min 15 sec) 
Heartbeat CPU 0 instructions: 500000001 cycles: 377208520 heartbeat IPC: 1.00368 cumulative IPC: 1.1984 (Simulation time: 0 hr 15 min 41 sec) 
Heartbeat CPU 0 instructions: 510000001 cycles: 387093328 heartbeat IPC: 1.01165 cumulative IPC: 1.19303 (Simulation time: 0 hr 16 min 7 sec) 
Heartbeat CPU 0 instructions: 520000000 cycles: 397013342 heartbeat IPC: 1.00806 cumulative IPC: 1.18784 (Simulation time: 0 hr 16 min 33 sec) 
Heartbeat CPU 0 instructions: 530000002 cycles: 406816574 heartbeat IPC: 1.02007 cumulative IPC: 1.18331 (Simulation time: 0 hr 16 min 59 sec) 
Heartbeat CPU 0 instructions: 540000001 cycles: 416590062 heartbeat IPC: 1.02318 cumulative IPC: 1.17912 (Simulation time: 0 hr 17 min 25 sec) 
Heartbeat CPU 0 instructions: 550000000 cycles: 426367553 heartbeat IPC: 1.02276 cumulative IPC: 1.17513 (Simulation time: 0 hr 17 min 51 sec) 
Heartbeat CPU 0 instructions: 560000000 cycles: 436213328 heartbeat IPC: 1.01566 cumulative IPC: 1.17113 (Simulation time: 0 hr 18 min 17 sec) 
Heartbeat CPU 0 instructions: 570000003 cycles: 446085923 heartbeat IPC: 1.01291 cumulative IPC: 1.16725 (Simulation time: 0 hr 18 min 43 sec) 
Heartbeat CPU 0 instructions: 580000000 cycles: 455943692 heartbeat IPC: 1.01443 cumulative IPC: 1.1636 (Simulation time: 0 hr 19 min 9 sec) 
Heartbeat CPU 0 instructions: 590000000 cycles: 465744414 heartbeat IPC: 1.02033 cumulative IPC: 1.16027 (Simulation time: 0 hr 19 min 35 sec) 
Heartbeat CPU 0 instructions: 600000001 cycles: 475484289 heartbeat IPC: 1.02671 cumulative IPC: 1.15726 (Simulation time: 0 hr 20 min 1 sec) 
Heartbeat CPU 0 instructions: 610000000 cycles: 485351853 heartbeat IPC: 1.01342 cumulative IPC: 1.15405 (Simulation time: 0 hr 20 min 27 sec) 
Heartbeat CPU 0 instructions: 620000003 cycles: 500338215 heartbeat IPC: 0.667274 cumulative IPC: 1.13808 (Simulation time: 0 hr 20 min 52 sec) 
Heartbeat CPU 0 instructions: 630000001 cycles: 515626003 heartbeat IPC: 0.654117 cumulative IPC: 1.12241 (Simulation time: 0 hr 21 min 18 sec) 
Heartbeat CPU 0 instructions: 640000001 cycles: 531635595 heartbeat IPC: 0.624626 cumulative IPC: 1.10609 (Simulation time: 0 hr 21 min 46 sec) 
Heartbeat CPU 0 instructions: 650000001 cycles: 551254504 heartbeat IPC: 0.509712 cumulative IPC: 1.08305 (Simulation time: 0 hr 22 min 16 sec) 
Heartbeat CPU 0 instructions: 660000000 cycles: 564342044 heartbeat IPC: 0.764085 cumulative IPC: 1.07504 (Simulation time: 0 hr 22 min 45 sec) 
Heartbeat CPU 0 instructions: 670000003 cycles: 578174575 heartbeat IPC: 0.722934 cumulative IPC: 1.06593 (Simulation time: 0 hr 23 min 15 sec) 
Heartbeat CPU 0 instructions: 680000003 cycles: 599818609 heartbeat IPC: 0.462021 cumulative IPC: 1.04244 (Simulation time: 0 hr 23 min 49 sec) 
Heartbeat CPU 0 instructions: 690000000 cycles: 607563510 heartbeat IPC: 1.29117 cumulative IPC: 1.04585 (Simulation time: 0 hr 24 min 14 sec) 
Heartbeat CPU 0 instructions: 700000000 cycles: 615961792 heartbeat IPC: 1.19072 cumulative IPC: 1.04798 (Simulation time: 0 hr 24 min 40 sec) 
Heartbeat CPU 0 instructions: 710000002 cycles: 623830968 heartbeat IPC: 1.27078 cumulative IPC: 1.051 (Simulation time: 0 hr 25 min 5 sec) 
Heartbeat CPU 0 instructions: 720000000 cycles: 632919020 heartbeat IPC: 1.10035 cumulative IPC: 1.05176 (Simulation time: 0 hr 25 min 30 sec) 
Heartbeat CPU 0 instructions: 730000003 cycles: 642046254 heartbeat IPC: 1.09562 cumulative IPC: 1.05243 (Simulation time: 0 hr 25 min 56 sec) 
Heartbeat CPU 0 instructions: 740000001 cycles: 652113163 heartbeat IPC: 0.993353 cumulative IPC: 1.05145 (Simulation time: 0 hr 26 min 22 sec) 
Heartbeat CPU 0 instructions: 750000003 cycles: 673400824 heartbeat IPC: 0.469756 cumulative IPC: 1.03179 (Simulation time: 0 hr 26 min 58 sec) 
Heartbeat CPU 0 instructions: 760000001 cycles: 689208675 heartbeat IPC: 0.632597 cumulative IPC: 1.02202 (Simulation time: 0 hr 27 min 29 sec) 
Heartbeat CPU 0 instructions: 770000000 cycles: 710970812 heartbeat IPC: 0.459514 cumulative IPC: 1.00368 (Simulation time: 0 hr 28 min 2 sec) 
Heartbeat CPU 0 instructions: 780000003 cycles: 725291347 heartbeat IPC: 0.698298 cumulative IPC: 0.99727 (Simulation time: 0 hr 28 min 31 sec) 
Heartbeat CPU 0 instructions: 790000003 cycles: 738101306 heartbeat IPC: 0.780643 cumulative IPC: 0.993275 (Simulation time: 0 hr 29 min 0 sec) 
Heartbeat CPU 0 instructions: 800000003 cycles: 754185779 heartbeat IPC: 0.621718 cumulative IPC: 0.984867 (Simulation time: 0 hr 29 min 29 sec) 
Heartbeat CPU 0 instructions: 810000000 cycles: 776739493 heartbeat IPC: 0.443386 cumulative IPC: 0.968213 (Simulation time: 0 hr 30 min 3 sec) 
Heartbeat CPU 0 instructions: 820000001 cycles: 806530444 heartbeat IPC: 0.335672 cumulative IPC: 0.943519 (Simulation time: 0 hr 30 min 41 sec) 
Heartbeat CPU 0 instructions: 830000003 cycles: 824298422 heartbeat IPC: 0.56281 cumulative IPC: 0.934856 (Simulation time: 0 hr 31 min 9 sec) 
Heartbeat CPU 0 instructions: 840000001 cycles: 843644706 heartbeat IPC: 0.516895 cumulative IPC: 0.924751 (Simulation time: 0 hr 31 min 41 sec) 
Heartbeat CPU 0 instructions: 850000001 cycles: 872314359 heartbeat IPC: 0.348801 cumulative IPC: 0.90483 (Simulation time: 0 hr 32 min 20 sec) 
Heartbeat CPU 0 instructions: 860000003 cycles: 888698790 heartbeat IPC: 0.610336 cumulative IPC: 0.899122 (Simulation time: 0 hr 32 min 52 sec) 
Heartbeat CPU 0 instructions: 870000003 cycles: 897446925 heartbeat IPC: 1.1431 cumulative IPC: 0.901621 (Simulation time: 0 hr 33 min 17 sec) 
Heartbeat CPU 0 instructions: 880000000 cycles: 910437040 heartbeat IPC: 0.769816 cumulative IPC: 0.899646 (Simulation time: 0 hr 33 min 45 sec) 
Heartbeat CPU 0 instructions: 890000002 cycles: 918702890 heartbeat IPC: 1.2098 cumulative IPC: 0.902575 (Simulation time: 0 hr 34 min 10 sec) 
Heartbeat CPU 0 instructions: 900000002 cycles: 931118327 heartbeat IPC: 0.805449 cumulative IPC: 0.901217 (Simulation time: 0 hr 34 min 38 sec) 
Heartbeat CPU 0 instructions: 910000002 cycles: 939008778 heartbeat IPC: 1.26735 cumulative IPC: 0.904443 (Simulation time: 0 hr 35 min 2 sec) 
Heartbeat CPU 0 instructions: 920000002 cycles: 951256714 heartbeat IPC: 0.816464 cumulative IPC: 0.903256 (Simulation time: 0 hr 35 min 30 sec) 
Heartbeat CPU 0 instructions: 930000003 cycles: 959364606 heartbeat IPC: 1.23337 cumulative IPC: 0.906178 (Simulation time: 0 hr 35 min 54 sec) 
Heartbeat CPU 0 instructions: 940000003 cycles: 971614726 heartbeat IPC: 0.816319 cumulative IPC: 0.904992 (Simulation time: 0 hr 36 min 22 sec) 
Heartbeat CPU 0 instructions: 950000001 cycles: 979710156 heartbeat IPC: 1.23526 cumulative IPC: 0.907848 (Simulation time: 0 hr 36 min 47 sec) 
Heartbeat CPU 0 instructions: 960000001 cycles: 992478328 heartbeat IPC: 0.783197 cumulative IPC: 0.906171 (Simulation time: 0 hr 37 min 14 sec) 
Heartbeat CPU 0 instructions: 970000000 cycles: 999930291 heartbeat IPC: 1.34193 cumulative IPC: 0.909566 (Simulation time: 0 hr 37 min 37 sec) 
Heartbeat CPU 0 instructions: 980000003 cycles: 1007546986 heartbeat IPC: 1.31291 cumulative IPC: 0.912752 (Simulation time: 0 hr 38 min 0 sec) 
Heartbeat CPU 0 instructions: 990000000 cycles: 1015223064 heartbeat IPC: 1.30275 cumulative IPC: 0.915833 (Simulation time: 0 hr 38 min 23 sec) 
Heartbeat CPU 0 instructions: 1000000000 cycles: 1029219919 heartbeat IPC: 0.714446 cumulative IPC: 0.912973 (Simulation time: 0 hr 38 min 48 sec) 
Heartbeat CPU 0 instructions: 1010000002 cycles: 1051467070 heartbeat IPC: 0.449496 cumulative IPC: 0.902744 (Simulation time: 0 hr 39 min 19 sec) 
Heartbeat CPU 0 instructions: 1020000002 cycles: 1059742311 heartbeat IPC: 1.20842 cumulative IPC: 0.905233 (Simulation time: 0 hr 39 min 45 sec) 
Heartbeat CPU 0 instructions: 1030000000 cycles: 1067946898 heartbeat IPC: 1.21883 cumulative IPC: 0.907745 (Simulation time: 0 hr 40 min 11 sec) 
Heartbeat CPU 0 instructions: 1040000001 cycles: 1075653611 heartbeat IPC: 1.29757 cumulative IPC: 0.910655 (Simulation time: 0 hr 40 min 36 sec) 
Heartbeat CPU 0 instructions: 1050000001 cycles: 1084077481 heartbeat IPC: 1.1871 cumulative IPC: 0.912893 (Simulation time: 0 hr 41 min 1 sec) 
Heartbeat CPU 0 instructions: 1060000001 cycles: 1093958854 heartbeat IPC: 1.01201 cumulative IPC: 0.913825 (Simulation time: 0 hr 41 min 28 sec) 
Heartbeat CPU 0 instructions: 1070000003 cycles: 1101401532 heartbeat IPC: 1.3436 cumulative IPC: 0.916849 (Simulation time: 0 hr 41 min 52 sec) 
Heartbeat CPU 0 instructions: 1080000002 cycles: 1118170484 heartbeat IPC: 0.59634 cumulative IPC: 0.911848 (Simulation time: 0 hr 42 min 24 sec) 
Heartbeat CPU 0 instructions: 1090000002 cycles: 1138256344 heartbeat IPC: 0.497863 cumulative IPC: 0.904253 (Simulation time: 0 hr 42 min 59 sec) 
Heartbeat CPU 0 instructions: 1100000000 cycles: 1154871405 heartbeat IPC: 0.601863 cumulative IPC: 0.899732 (Simulation time: 0 hr 43 min 30 sec) 
Finished CPU 0 instructions: 1000000000 cycles: 1111441940 cumulative IPC: 0.899732 (Simulation time: 0 hr 43 min 30 sec) 

ChampSim completed all CPUs

Region of Interest Statistics

CPU 0 cumulative IPC: 0.899732 instructions: 1000000000 cycles: 1111441940
L1D TOTAL     ACCESS:  245325573  HIT:  232022759  MISS:   13302814
L1D LOAD      ACCESS:  185678702  HIT:  176139207  MISS:    9539495
L1D RFO       ACCESS:   59646871  HIT:   55883552  MISS:    3763319
L1D PREFETCH  ACCESS:          0  HIT:          0  MISS:          0
L1D WRITEBACK ACCESS:          0  HIT:          0  MISS:          0
L1D PREFETCH  REQUESTED:          0  ISSUED:          0  USEFUL:          0  USELESS:          0
L1D AVERAGE MISS LATENCY: 138.072 cycles
L1I TOTAL     ACCESS:  171383257  HIT:  170680515  MISS:     702742
L1I LOAD      ACCESS:  171383257  HIT:  170680515  MISS:     702742
L1I RFO       ACCESS:          0  HIT:          0  MISS:          0
L1I PREFETCH  ACCESS:          0  HIT:          0  MISS:          0
L1I WRITEBACK ACCESS:          0  HIT:          0  MISS:          0
L1I PREFETCH  REQUESTED:          0  ISSUED:          0  USEFUL:          0  USELESS:          0
L1I AVERAGE MISS LATENCY: 21.5249 cycles
L2C TOTAL     ACCESS:   19725486  HIT:   12372597  MISS:    7352889
L2C LOAD      ACCESS:   10241329  HIT:    4604438  MISS:    5636891
L2C RFO       ACCESS:    3740916  HIT:    2031157  MISS:    1709759
L2C PREFETCH  ACCESS:          0  HIT:          0  MISS:          0
L2C WRITEBACK ACCESS:    5743241  HIT:    5737002  MISS:       6239
L2C PREFETCH  REQUESTED:          0  ISSUED:          0  USEFUL:          0  USELESS:          0
L2C AVERAGE MISS LATENCY: 227.909 cycles
LLC TOTAL     ACCESS:   10667257  HIT:    5055434  MISS:    5611823
LLC LOAD      ACCESS:    5636884  HIT:    1374325  MISS:    4262559
LLC RFO       ACCESS:    1709754  HIT:     364082  MISS:    1345672
LLC PREFETCH  ACCESS:          0  HIT:          0  MISS:          0
LLC WRITEBACK ACCESS:    3320619  HIT:    3317027  MISS:       3592
LLC PREFETCH  REQUESTED:          0  ISSUED:          0  USEFUL:          0  USELESS:          0
LLC AVERAGE MISS LATENCY: 245.418 cycles
Major fault: 0 Minor fault: 19417

DRAM Statistics
 CHANNEL 0
 RQ ROW_BUFFER_HIT:    1199195  ROW_BUFFER_MISS:    4408533
 DBUS_CONGESTED:    2740630
 WQ ROW_BUFFER_HIT:    1162635  ROW_BUFFER_MISS:    1312942  FULL:          0

 AVG_CONGESTED_CYCLE: 6

CPU 0 Branch Prediction Accuracy: 97.1042% MPKI: 2.81547 Average ROB Occupancy at Mispredict: 109.538

Branch types
NOT_BRANCH: 902775037 90.2775%
BRANCH_DIRECT_JUMP: 4806588 0.480659%
BRANCH_INDIRECT: 59 5.9e-06%
BRANCH_CONDITIONAL: 81914089 8.19141%
BRANCH_DIRECT_CALL: 5252089 0.525209%
BRANCH_INDIRECT_CALL: 0 0%
BRANCH_RETURN: 5252094 0.525209%
BRANCH_OTHER: 0 0%

