
*** ChampSim Multicore Out-of-Order Simulator ***

Warmup Instructions: 100000000
Simulation Instructions: 1000000000
Number of CPUs: 1
LLC sets: 2048
LLC ways: 16
Off-chip DRAM Size: 4096 MB Channels: 1 Width: 64-bit Data Rate: 3200 MT/s

CPU 0 runs /scratch/user/kevin.weston/dpc3-traces/621.champsimtrace.xz
CPU 0 Bimodal branch predictor
Per-line RRPV Initialized
PRRIP State Initialized
Assign SAMPLER_SET[0]: 454  LLC: 2048
SAMPLER_SET[0]: 454
Assign SAMPLER_SET[1]: 1662  LLC: 2048
SAMPLER_SET[1]: 1662
Assign SAMPLER_SET[2]: 1921  LLC: 2048
SAMPLER_SET[2]: 1921
Assign SAMPLER_SET[3]: 1131  LLC: 2048
SAMPLER_SET[3]: 1131
Assign SAMPLER_SET[4]: 331  LLC: 2048
SAMPLER_SET[4]: 331
Assign SAMPLER_SET[5]: 1531  LLC: 2048
SAMPLER_SET[5]: 1531
Assign SAMPLER_SET[6]: 482  LLC: 2048
SAMPLER_SET[6]: 482
Assign SAMPLER_SET[7]: 1275  LLC: 2048
SAMPLER_SET[7]: 1275
Assign SAMPLER_SET[8]: 1876  LLC: 2048
SAMPLER_SET[8]: 1876
Assign SAMPLER_SET[9]: 2038  LLC: 2048
SAMPLER_SET[9]: 2038
Assign SAMPLER_SET[10]: 701  LLC: 2048
SAMPLER_SET[10]: 701
Assign SAMPLER_SET[11]: 479  LLC: 2048
SAMPLER_SET[11]: 479
Assign SAMPLER_SET[12]: 892  LLC: 2048
SAMPLER_SET[12]: 892
Assign SAMPLER_SET[13]: 1820  LLC: 2048
SAMPLER_SET[13]: 1820
Assign SAMPLER_SET[14]: 1505  LLC: 2048
SAMPLER_SET[14]: 1505
Assign SAMPLER_SET[15]: 1159  LLC: 2048
SAMPLER_SET[15]: 1159
Assign SAMPLER_SET[16]: 513  LLC: 2048
SAMPLER_SET[16]: 513
Assign SAMPLER_SET[17]: 703  LLC: 2048
SAMPLER_SET[17]: 703
Assign SAMPLER_SET[18]: 561  LLC: 2048
SAMPLER_SET[18]: 561
Assign SAMPLER_SET[19]: 990  LLC: 2048
SAMPLER_SET[19]: 990
Assign SAMPLER_SET[20]: 342  LLC: 2048
SAMPLER_SET[20]: 342
Assign SAMPLER_SET[21]: 882  LLC: 2048
SAMPLER_SET[21]: 882
Assign SAMPLER_SET[22]: 15  LLC: 2048
SAMPLER_SET[22]: 15
Assign SAMPLER_SET[23]: 71  LLC: 2048
SAMPLER_SET[23]: 71
Assign SAMPLER_SET[24]: 1127  LLC: 2048
SAMPLER_SET[24]: 1127
Assign SAMPLER_SET[25]: 1382  LLC: 2048
SAMPLER_SET[25]: 1382
Assign SAMPLER_SET[26]: 647  LLC: 2048
SAMPLER_SET[26]: 647
Assign SAMPLER_SET[27]: 857  LLC: 2048
SAMPLER_SET[27]: 857
Assign SAMPLER_SET[28]: 1450  LLC: 2048
SAMPLER_SET[28]: 1450
Assign SAMPLER_SET[29]: 1160  LLC: 2048
SAMPLER_SET[29]: 1160
Assign SAMPLER_SET[30]: 1852  LLC: 2048
SAMPLER_SET[30]: 1852
Assign SAMPLER_SET[31]: 1881  LLC: 2048
SAMPLER_SET[31]: 1881
Assign SAMPLER_SET[32]: 1770  LLC: 2048
SAMPLER_SET[32]: 1770
Assign SAMPLER_SET[33]: 1622  LLC: 2048
SAMPLER_SET[33]: 1622
Assign SAMPLER_SET[34]: 275  LLC: 2048
SAMPLER_SET[34]: 275
Assign SAMPLER_SET[35]: 635  LLC: 2048
SAMPLER_SET[35]: 635
Assign SAMPLER_SET[36]: 466  LLC: 2048
SAMPLER_SET[36]: 466
Assign SAMPLER_SET[37]: 1413  LLC: 2048
SAMPLER_SET[37]: 1413
Assign SAMPLER_SET[38]: 417  LLC: 2048
SAMPLER_SET[38]: 417
Assign SAMPLER_SET[39]: 472  LLC: 2048
SAMPLER_SET[39]: 472
Assign SAMPLER_SET[40]: 1340  LLC: 2048
SAMPLER_SET[40]: 1340
Assign SAMPLER_SET[41]: 852  LLC: 2048
SAMPLER_SET[41]: 852
Assign SAMPLER_SET[42]: 1365  LLC: 2048
SAMPLER_SET[42]: 1365
Assign SAMPLER_SET[43]: 47  LLC: 2048
SAMPLER_SET[43]: 47
Assign SAMPLER_SET[44]: 823  LLC: 2048
SAMPLER_SET[44]: 823
Assign SAMPLER_SET[45]: 686  LLC: 2048
SAMPLER_SET[45]: 686
Assign SAMPLER_SET[46]: 1637  LLC: 2048
SAMPLER_SET[46]: 1637
Assign SAMPLER_SET[47]: 1115  LLC: 2048
SAMPLER_SET[47]: 1115
Assign SAMPLER_SET[48]: 986  LLC: 2048
SAMPLER_SET[48]: 986
Assign SAMPLER_SET[49]: 258  LLC: 2048
SAMPLER_SET[49]: 258
Assign SAMPLER_SET[50]: 633  LLC: 2048
SAMPLER_SET[50]: 633
Assign SAMPLER_SET[51]: 920  LLC: 2048
SAMPLER_SET[51]: 920
Assign SAMPLER_SET[52]: 204  LLC: 2048
SAMPLER_SET[52]: 204
Assign SAMPLER_SET[53]: 227  LLC: 2048
SAMPLER_SET[53]: 227
Assign SAMPLER_SET[54]: 1818  LLC: 2048
SAMPLER_SET[54]: 1818
Assign SAMPLER_SET[55]: 886  LLC: 2048
SAMPLER_SET[55]: 886
Assign SAMPLER_SET[56]: 1422  LLC: 2048
SAMPLER_SET[56]: 1422
Assign SAMPLER_SET[57]: 607  LLC: 2048
SAMPLER_SET[57]: 607
Assign SAMPLER_SET[58]: 217  LLC: 2048
SAMPLER_SET[58]: 217
Assign SAMPLER_SET[59]: 1945  LLC: 2048
SAMPLER_SET[59]: 1945
Assign SAMPLER_SET[60]: 143  LLC: 2048
SAMPLER_SET[60]: 143
Assign SAMPLER_SET[61]: 1311  LLC: 2048
SAMPLER_SET[61]: 1311
Assign SAMPLER_SET[62]: 319  LLC: 2048
SAMPLER_SET[62]: 319
Assign SAMPLER_SET[63]: 1846  LLC: 2048
SAMPLER_SET[63]: 1846
Assign SAMPLER_SET[64]: 238  LLC: 2048
SAMPLER_SET[64]: 238
Assign SAMPLER_SET[65]: 67  LLC: 2048
SAMPLER_SET[65]: 67
Assign SAMPLER_SET[66]: 1912  LLC: 2048
SAMPLER_SET[66]: 1912
Assign SAMPLER_SET[67]: 1613  LLC: 2048
SAMPLER_SET[67]: 1613
Assign SAMPLER_SET[68]: 1293  LLC: 2048
SAMPLER_SET[68]: 1293
Assign SAMPLER_SET[69]: 1018  LLC: 2048
SAMPLER_SET[69]: 1018
Assign SAMPLER_SET[70]: 1982  LLC: 2048
SAMPLER_SET[70]: 1982
Assign SAMPLER_SET[71]: 1702  LLC: 2048
SAMPLER_SET[71]: 1702
Assign SAMPLER_SET[72]: 1498  LLC: 2048
SAMPLER_SET[72]: 1498
Assign SAMPLER_SET[73]: 228  LLC: 2048
SAMPLER_SET[73]: 228
Assign SAMPLER_SET[74]: 1414  LLC: 2048
SAMPLER_SET[74]: 1414
Assign SAMPLER_SET[75]: 1166  LLC: 2048
SAMPLER_SET[75]: 1166
Assign SAMPLER_SET[76]: 732  LLC: 2048
SAMPLER_SET[76]: 732
Assign SAMPLER_SET[77]: 297  LLC: 2048
SAMPLER_SET[77]: 297
Assign SAMPLER_SET[78]: 1133  LLC: 2048
SAMPLER_SET[78]: 1133
Assign SAMPLER_SET[79]: 846  LLC: 2048
SAMPLER_SET[79]: 846
Assign SAMPLER_SET[80]: 767  LLC: 2048
SAMPLER_SET[80]: 767
Assign SAMPLER_SET[81]: 1878  LLC: 2048
SAMPLER_SET[81]: 1878
Assign SAMPLER_SET[82]: 993  LLC: 2048
SAMPLER_SET[82]: 993
Assign SAMPLER_SET[83]: 1392  LLC: 2048
SAMPLER_SET[83]: 1392
Assign SAMPLER_SET[84]: 1568  LLC: 2048
SAMPLER_SET[84]: 1568
Assign SAMPLER_SET[85]: 1787  LLC: 2048
SAMPLER_SET[85]: 1787
Assign SAMPLER_SET[86]: 399  LLC: 2048
SAMPLER_SET[86]: 399
Assign SAMPLER_SET[87]: 1201  LLC: 2048
SAMPLER_SET[87]: 1201
Assign SAMPLER_SET[88]: 856  LLC: 2048
SAMPLER_SET[88]: 856
Assign SAMPLER_SET[89]: 773  LLC: 2048
SAMPLER_SET[89]: 773
Assign SAMPLER_SET[90]: 1680  LLC: 2048
SAMPLER_SET[90]: 1680
Assign SAMPLER_SET[91]: 1477  LLC: 2048
SAMPLER_SET[91]: 1477
Assign SAMPLER_SET[92]: 9  LLC: 2048
SAMPLER_SET[92]: 9
Assign SAMPLER_SET[93]: 1500  LLC: 2048
SAMPLER_SET[93]: 1500
Assign SAMPLER_SET[94]: 851  LLC: 2048
SAMPLER_SET[94]: 851
Assign SAMPLER_SET[95]: 973  LLC: 2048
SAMPLER_SET[95]: 973
Assign SAMPLER_SET[96]: 938  LLC: 2048
SAMPLER_SET[96]: 938
Assign SAMPLER_SET[97]: 1851  LLC: 2048
SAMPLER_SET[97]: 1851
Assign SAMPLER_SET[98]: 1608  LLC: 2048
SAMPLER_SET[98]: 1608
Assign SAMPLER_SET[99]: 1945  LLC: 2048
Assign SAMPLER_SET[99]: 1106  LLC: 2048
SAMPLER_SET[99]: 1106
Assign SAMPLER_SET[100]: 979  LLC: 2048
SAMPLER_SET[100]: 979
Assign SAMPLER_SET[101]: 338  LLC: 2048
SAMPLER_SET[101]: 338
Assign SAMPLER_SET[102]: 1693  LLC: 2048
SAMPLER_SET[102]: 1693
Assign SAMPLER_SET[103]: 6  LLC: 2048
SAMPLER_SET[103]: 6
Assign SAMPLER_SET[104]: 671  LLC: 2048
SAMPLER_SET[104]: 671
Assign SAMPLER_SET[105]: 490  LLC: 2048
SAMPLER_SET[105]: 490
Assign SAMPLER_SET[106]: 1461  LLC: 2048
SAMPLER_SET[106]: 1461
Assign SAMPLER_SET[107]: 1730  LLC: 2048
SAMPLER_SET[107]: 1730
Assign SAMPLER_SET[108]: 1030  LLC: 2048
SAMPLER_SET[108]: 1030
Assign SAMPLER_SET[109]: 19  LLC: 2048
SAMPLER_SET[109]: 19
Assign SAMPLER_SET[110]: 920  LLC: 2048
Assign SAMPLER_SET[110]: 329  LLC: 2048
SAMPLER_SET[110]: 329
Assign SAMPLER_SET[111]: 1714  LLC: 2048
SAMPLER_SET[111]: 1714
Assign SAMPLER_SET[112]: 1  LLC: 2048
SAMPLER_SET[112]: 1
Assign SAMPLER_SET[113]: 1822  LLC: 2048
SAMPLER_SET[113]: 1822
Assign SAMPLER_SET[114]: 172  LLC: 2048
SAMPLER_SET[114]: 172
Assign SAMPLER_SET[115]: 1586  LLC: 2048
SAMPLER_SET[115]: 1586
Assign SAMPLER_SET[116]: 648  LLC: 2048
SAMPLER_SET[116]: 648
Assign SAMPLER_SET[117]: 1329  LLC: 2048
SAMPLER_SET[117]: 1329
Assign SAMPLER_SET[118]: 668  LLC: 2048
SAMPLER_SET[118]: 668
Assign SAMPLER_SET[119]: 1874  LLC: 2048
SAMPLER_SET[119]: 1874
Assign SAMPLER_SET[120]: 70  LLC: 2048
SAMPLER_SET[120]: 70
Assign SAMPLER_SET[121]: 661  LLC: 2048
SAMPLER_SET[121]: 661
Assign SAMPLER_SET[122]: 1649  LLC: 2048
SAMPLER_SET[122]: 1649
Assign SAMPLER_SET[123]: 1590  LLC: 2048
SAMPLER_SET[123]: 1590
Assign SAMPLER_SET[124]: 911  LLC: 2048
SAMPLER_SET[124]: 911
Assign SAMPLER_SET[125]: 1367  LLC: 2048
SAMPLER_SET[125]: 1367
Assign SAMPLER_SET[126]: 1782  LLC: 2048
SAMPLER_SET[126]: 1782
Assign SAMPLER_SET[127]: 569  LLC: 2048
SAMPLER_SET[127]: 569
Assign SAMPLER_SET[128]: 1309  LLC: 2048
SAMPLER_SET[128]: 1309
Assign SAMPLER_SET[129]: 534  LLC: 2048
SAMPLER_SET[129]: 534
Assign SAMPLER_SET[130]: 1274  LLC: 2048
SAMPLER_SET[130]: 1274
Assign SAMPLER_SET[131]: 904  LLC: 2048
SAMPLER_SET[131]: 904
Assign SAMPLER_SET[132]: 1908  LLC: 2048
SAMPLER_SET[132]: 1908
Assign SAMPLER_SET[133]: 245  LLC: 2048
SAMPLER_SET[133]: 245
Assign SAMPLER_SET[134]: 1688  LLC: 2048
SAMPLER_SET[134]: 1688
Assign SAMPLER_SET[135]: 1660  LLC: 2048
SAMPLER_SET[135]: 1660
Assign SAMPLER_SET[136]: 1303  LLC: 2048
SAMPLER_SET[136]: 1303
Assign SAMPLER_SET[137]: 1628  LLC: 2048
SAMPLER_SET[137]: 1628
Assign SAMPLER_SET[138]: 1857  LLC: 2048
SAMPLER_SET[138]: 1857
Assign SAMPLER_SET[139]: 187  LLC: 2048
SAMPLER_SET[139]: 187
Assign SAMPLER_SET[140]: 1389  LLC: 2048
SAMPLER_SET[140]: 1389
Assign SAMPLER_SET[141]: 881  LLC: 2048
SAMPLER_SET[141]: 881
Assign SAMPLER_SET[142]: 1166  LLC: 2048
Assign SAMPLER_SET[142]: 1039  LLC: 2048
SAMPLER_SET[142]: 1039
Assign SAMPLER_SET[143]: 1136  LLC: 2048
SAMPLER_SET[143]: 1136
Assign SAMPLER_SET[144]: 601  LLC: 2048
SAMPLER_SET[144]: 601
Assign SAMPLER_SET[145]: 967  LLC: 2048
SAMPLER_SET[145]: 967
Assign SAMPLER_SET[146]: 769  LLC: 2048
SAMPLER_SET[146]: 769
Assign SAMPLER_SET[147]: 283  LLC: 2048
SAMPLER_SET[147]: 283
Assign SAMPLER_SET[148]: 559  LLC: 2048
SAMPLER_SET[148]: 559
Assign SAMPLER_SET[149]: 1075  LLC: 2048
SAMPLER_SET[149]: 1075
Assign SAMPLER_SET[150]: 829  LLC: 2048
SAMPLER_SET[150]: 829
Assign SAMPLER_SET[151]: 1681  LLC: 2048
SAMPLER_SET[151]: 1681
Assign SAMPLER_SET[152]: 1728  LLC: 2048
SAMPLER_SET[152]: 1728
Assign SAMPLER_SET[153]: 541  LLC: 2048
SAMPLER_SET[153]: 541
Assign SAMPLER_SET[154]: 421  LLC: 2048
SAMPLER_SET[154]: 421
Assign SAMPLER_SET[155]: 1037  LLC: 2048
SAMPLER_SET[155]: 1037
Assign SAMPLER_SET[156]: 13  LLC: 2048
SAMPLER_SET[156]: 13
Assign SAMPLER_SET[157]: 1707  LLC: 2048
SAMPLER_SET[157]: 1707
Assign SAMPLER_SET[158]: 1075  LLC: 2048
Assign SAMPLER_SET[158]: 1933  LLC: 2048
SAMPLER_SET[158]: 1933
Assign SAMPLER_SET[159]: 1406  LLC: 2048
SAMPLER_SET[159]: 1406
Assign SAMPLER_SET[160]: 94  LLC: 2048
SAMPLER_SET[160]: 94
Assign SAMPLER_SET[161]: 1423  LLC: 2048
SAMPLER_SET[161]: 1423
Assign SAMPLER_SET[162]: 1854  LLC: 2048
SAMPLER_SET[162]: 1854
Assign SAMPLER_SET[163]: 230  LLC: 2048
SAMPLER_SET[163]: 230
Assign SAMPLER_SET[164]: 104  LLC: 2048
SAMPLER_SET[164]: 104
Assign SAMPLER_SET[165]: 1652  LLC: 2048
SAMPLER_SET[165]: 1652
Assign SAMPLER_SET[166]: 1446  LLC: 2048
SAMPLER_SET[166]: 1446
Assign SAMPLER_SET[167]: 1338  LLC: 2048
SAMPLER_SET[167]: 1338
Assign SAMPLER_SET[168]: 177  LLC: 2048
SAMPLER_SET[168]: 177
Assign SAMPLER_SET[169]: 195  LLC: 2048
SAMPLER_SET[169]: 195
Assign SAMPLER_SET[170]: 1171  LLC: 2048
SAMPLER_SET[170]: 1171
Assign SAMPLER_SET[171]: 1297  LLC: 2048
SAMPLER_SET[171]: 1297
Assign SAMPLER_SET[172]: 1704  LLC: 2048
SAMPLER_SET[172]: 1704
Assign SAMPLER_SET[173]: 100  LLC: 2048
SAMPLER_SET[173]: 100
Assign SAMPLER_SET[174]: 711  LLC: 2048
SAMPLER_SET[174]: 711
Assign SAMPLER_SET[175]: 1243  LLC: 2048
SAMPLER_SET[175]: 1243
Assign SAMPLER_SET[176]: 1738  LLC: 2048
SAMPLER_SET[176]: 1738
Assign SAMPLER_SET[177]: 1504  LLC: 2048
SAMPLER_SET[177]: 1504
Assign SAMPLER_SET[178]: 96  LLC: 2048
SAMPLER_SET[178]: 96
Assign SAMPLER_SET[179]: 1249  LLC: 2048
SAMPLER_SET[179]: 1249
Assign SAMPLER_SET[180]: 1267  LLC: 2048
SAMPLER_SET[180]: 1267
Assign SAMPLER_SET[181]: 1727  LLC: 2048
SAMPLER_SET[181]: 1727
Assign SAMPLER_SET[182]: 1545  LLC: 2048
SAMPLER_SET[182]: 1545
Assign SAMPLER_SET[183]: 1792  LLC: 2048
SAMPLER_SET[183]: 1792
Assign SAMPLER_SET[184]: 1383  LLC: 2048
SAMPLER_SET[184]: 1383
Assign SAMPLER_SET[185]: 1954  LLC: 2048
SAMPLER_SET[185]: 1954
Assign SAMPLER_SET[186]: 739  LLC: 2048
SAMPLER_SET[186]: 739
Assign SAMPLER_SET[187]: 1061  LLC: 2048
SAMPLER_SET[187]: 1061
Assign SAMPLER_SET[188]: 672  LLC: 2048
SAMPLER_SET[188]: 672
Assign SAMPLER_SET[189]: 1057  LLC: 2048
SAMPLER_SET[189]: 1057
Assign SAMPLER_SET[190]: 1329  LLC: 2048
Assign SAMPLER_SET[190]: 1415  LLC: 2048
SAMPLER_SET[190]: 1415
Assign SAMPLER_SET[191]: 981  LLC: 2048
SAMPLER_SET[191]: 981
Assign SAMPLER_SET[192]: 98  LLC: 2048
SAMPLER_SET[192]: 98
Assign SAMPLER_SET[193]: 453  LLC: 2048
SAMPLER_SET[193]: 453
Assign SAMPLER_SET[194]: 1448  LLC: 2048
SAMPLER_SET[194]: 1448
Assign SAMPLER_SET[195]: 79  LLC: 2048
SAMPLER_SET[195]: 79
Assign SAMPLER_SET[196]: 126  LLC: 2048
SAMPLER_SET[196]: 126
Assign SAMPLER_SET[197]: 1582  LLC: 2048
SAMPLER_SET[197]: 1582
Assign SAMPLER_SET[198]: 1289  LLC: 2048
SAMPLER_SET[198]: 1289
Assign SAMPLER_SET[199]: 875  LLC: 2048
SAMPLER_SET[199]: 875
Assign SAMPLER_SET[200]: 404  LLC: 2048
SAMPLER_SET[200]: 404
Assign SAMPLER_SET[201]: 415  LLC: 2048
SAMPLER_SET[201]: 415
Assign SAMPLER_SET[202]: 1712  LLC: 2048
SAMPLER_SET[202]: 1712
Assign SAMPLER_SET[203]: 1389  LLC: 2048
Assign SAMPLER_SET[203]: 169  LLC: 2048
SAMPLER_SET[203]: 169
Assign SAMPLER_SET[204]: 158  LLC: 2048
SAMPLER_SET[204]: 158
Assign SAMPLER_SET[205]: 90  LLC: 2048
SAMPLER_SET[205]: 90
Assign SAMPLER_SET[206]: 1291  LLC: 2048
SAMPLER_SET[206]: 1291
Assign SAMPLER_SET[207]: 838  LLC: 2048
SAMPLER_SET[207]: 838
Assign SAMPLER_SET[208]: 1904  LLC: 2048
SAMPLER_SET[208]: 1904
Assign SAMPLER_SET[209]: 640  LLC: 2048
SAMPLER_SET[209]: 640
Assign SAMPLER_SET[210]: 1462  LLC: 2048
SAMPLER_SET[210]: 1462
Assign SAMPLER_SET[211]: 1487  LLC: 2048
SAMPLER_SET[211]: 1487
Assign SAMPLER_SET[212]: 1863  LLC: 2048
SAMPLER_SET[212]: 1863
Assign SAMPLER_SET[213]: 1036  LLC: 2048
SAMPLER_SET[213]: 1036
Assign SAMPLER_SET[214]: 1702  LLC: 2048
Assign SAMPLER_SET[214]: 933  LLC: 2048
SAMPLER_SET[214]: 933
Assign SAMPLER_SET[215]: 554  LLC: 2048
SAMPLER_SET[215]: 554
Assign SAMPLER_SET[216]: 1496  LLC: 2048
SAMPLER_SET[216]: 1496
Assign SAMPLER_SET[217]: 1708  LLC: 2048
SAMPLER_SET[217]: 1708
Assign SAMPLER_SET[218]: 1275  LLC: 2048
Assign SAMPLER_SET[218]: 416  LLC: 2048
SAMPLER_SET[218]: 416
Assign SAMPLER_SET[219]: 491  LLC: 2048
SAMPLER_SET[219]: 491
Assign SAMPLER_SET[220]: 183  LLC: 2048
SAMPLER_SET[220]: 183
Assign SAMPLER_SET[221]: 1657  LLC: 2048
SAMPLER_SET[221]: 1657
Assign SAMPLER_SET[222]: 1060  LLC: 2048
SAMPLER_SET[222]: 1060
Assign SAMPLER_SET[223]: 626  LLC: 2048
SAMPLER_SET[223]: 626
Assign SAMPLER_SET[224]: 1315  LLC: 2048
SAMPLER_SET[224]: 1315
Assign SAMPLER_SET[225]: 1682  LLC: 2048
SAMPLER_SET[225]: 1682
Assign SAMPLER_SET[226]: 1352  LLC: 2048
SAMPLER_SET[226]: 1352
Assign SAMPLER_SET[227]: 1152  LLC: 2048
SAMPLER_SET[227]: 1152
Assign SAMPLER_SET[228]: 965  LLC: 2048
SAMPLER_SET[228]: 965
Assign SAMPLER_SET[229]: 1190  LLC: 2048
SAMPLER_SET[229]: 1190
Assign SAMPLER_SET[230]: 1191  LLC: 2048
SAMPLER_SET[230]: 1191
Assign SAMPLER_SET[231]: 645  LLC: 2048
SAMPLER_SET[231]: 645
Assign SAMPLER_SET[232]: 695  LLC: 2048
SAMPLER_SET[232]: 695
Assign SAMPLER_SET[233]: 1495  LLC: 2048
SAMPLER_SET[233]: 1495
Assign SAMPLER_SET[234]: 1932  LLC: 2048
SAMPLER_SET[234]: 1932
Assign SAMPLER_SET[235]: 656  LLC: 2048
SAMPLER_SET[235]: 656
Assign SAMPLER_SET[236]: 1508  LLC: 2048
SAMPLER_SET[236]: 1508
Assign SAMPLER_SET[237]: 939  LLC: 2048
SAMPLER_SET[237]: 939
Assign SAMPLER_SET[238]: 355  LLC: 2048
SAMPLER_SET[238]: 355
Assign SAMPLER_SET[239]: 1092  LLC: 2048
SAMPLER_SET[239]: 1092
Assign SAMPLER_SET[240]: 850  LLC: 2048
SAMPLER_SET[240]: 850
Assign SAMPLER_SET[241]: 102  LLC: 2048
SAMPLER_SET[241]: 102
Assign SAMPLER_SET[242]: 1763  LLC: 2048
SAMPLER_SET[242]: 1763
Assign SAMPLER_SET[243]: 668  LLC: 2048
Assign SAMPLER_SET[243]: 51  LLC: 2048
SAMPLER_SET[243]: 51
Assign SAMPLER_SET[244]: 1317  LLC: 2048
SAMPLER_SET[244]: 1317
Assign SAMPLER_SET[245]: 2041  LLC: 2048
SAMPLER_SET[245]: 2041
Assign SAMPLER_SET[246]: 1374  LLC: 2048
SAMPLER_SET[246]: 1374
Assign SAMPLER_SET[247]: 682  LLC: 2048
SAMPLER_SET[247]: 682
Assign SAMPLER_SET[248]: 1466  LLC: 2048
SAMPLER_SET[248]: 1466
Assign SAMPLER_SET[249]: 1139  LLC: 2048
SAMPLER_SET[249]: 1139
Assign SAMPLER_SET[250]: 1632  LLC: 2048
SAMPLER_SET[250]: 1632
Assign SAMPLER_SET[251]: 1117  LLC: 2048
SAMPLER_SET[251]: 1117
Assign SAMPLER_SET[252]: 1611  LLC: 2048
SAMPLER_SET[252]: 1611
Assign SAMPLER_SET[253]: 1905  LLC: 2048
SAMPLER_SET[253]: 1905
Assign SAMPLER_SET[254]: 1662  LLC: 2048
Assign SAMPLER_SET[254]: 446  LLC: 2048
SAMPLER_SET[254]: 446
Assign SAMPLER_SET[255]: 1705  LLC: 2048
SAMPLER_SET[255]: 1705
Heartbeat CPU 0 instructions: 10000000 cycles: 4328694 heartbeat IPC: 2.31017 cumulative IPC: 2.31017 (Simulation time: 0 hr 0 min 20 sec) 
Heartbeat CPU 0 instructions: 20000002 cycles: 8673385 heartbeat IPC: 2.30166 cumulative IPC: 2.30591 (Simulation time: 0 hr 0 min 40 sec) 
Heartbeat CPU 0 instructions: 30000000 cycles: 13029447 heartbeat IPC: 2.29565 cumulative IPC: 2.30248 (Simulation time: 0 hr 1 min 1 sec) 
Heartbeat CPU 0 instructions: 40000002 cycles: 17381326 heartbeat IPC: 2.29786 cumulative IPC: 2.30132 (Simulation time: 0 hr 1 min 21 sec) 
Heartbeat CPU 0 instructions: 50000002 cycles: 21731060 heartbeat IPC: 2.29899 cumulative IPC: 2.30085 (Simulation time: 0 hr 1 min 42 sec) 
Heartbeat CPU 0 instructions: 60000003 cycles: 26077316 heartbeat IPC: 2.30083 cumulative IPC: 2.30085 (Simulation time: 0 hr 2 min 2 sec) 
Heartbeat CPU 0 instructions: 70000000 cycles: 30419786 heartbeat IPC: 2.30284 cumulative IPC: 2.30113 (Simulation time: 0 hr 2 min 22 sec) 
Heartbeat CPU 0 instructions: 80000000 cycles: 34749579 heartbeat IPC: 2.30958 cumulative IPC: 2.30219 (Simulation time: 0 hr 2 min 43 sec) 
Heartbeat CPU 0 instructions: 90000000 cycles: 39094724 heartbeat IPC: 2.30142 cumulative IPC: 2.3021 (Simulation time: 0 hr 3 min 3 sec) 
Heartbeat CPU 0 instructions: 100000001 cycles: 43429708 heartbeat IPC: 2.30681 cumulative IPC: 2.30257 (Simulation time: 0 hr 3 min 24 sec) 

Warmup complete CPU 0 instructions: 100000001 cycles: 43429708 (Simulation time: 0 hr 3 min 24 sec) 

Heartbeat CPU 0 instructions: 110000000 cycles: 51879181 heartbeat IPC: 1.18351 cumulative IPC: 1.18351 (Simulation time: 0 hr 3 min 40 sec) 
Heartbeat CPU 0 instructions: 120000001 cycles: 60267666 heartbeat IPC: 1.19211 cumulative IPC: 1.18779 (Simulation time: 0 hr 3 min 57 sec) 
Heartbeat CPU 0 instructions: 130000000 cycles: 68699708 heartbeat IPC: 1.18595 cumulative IPC: 1.18718 (Simulation time: 0 hr 4 min 13 sec) 
Heartbeat CPU 0 instructions: 140000001 cycles: 77111459 heartbeat IPC: 1.18881 cumulative IPC: 1.18759 (Simulation time: 0 hr 4 min 30 sec) 
Heartbeat CPU 0 instructions: 150000000 cycles: 85403339 heartbeat IPC: 1.206 cumulative IPC: 1.19122 (Simulation time: 0 hr 4 min 46 sec) 
Heartbeat CPU 0 instructions: 160000002 cycles: 93721959 heartbeat IPC: 1.20212 cumulative IPC: 1.19303 (Simulation time: 0 hr 5 min 2 sec) 
Heartbeat CPU 0 instructions: 170000001 cycles: 102012562 heartbeat IPC: 1.20618 cumulative IPC: 1.19489 (Simulation time: 0 hr 5 min 18 sec) 
Heartbeat CPU 0 instructions: 180000000 cycles: 110324491 heartbeat IPC: 1.20309 cumulative IPC: 1.19591 (Simulation time: 0 hr 5 min 34 sec) 
Heartbeat CPU 0 instructions: 190000003 cycles: 118674242 heartbeat IPC: 1.19764 cumulative IPC: 1.1961 (Simulation time: 0 hr 5 min 50 sec) 
Heartbeat CPU 0 instructions: 200000000 cycles: 127011055 heartbeat IPC: 1.1995 cumulative IPC: 1.19644 (Simulation time: 0 hr 6 min 6 sec) 
Heartbeat CPU 0 instructions: 210000001 cycles: 135252562 heartbeat IPC: 1.21337 cumulative IPC: 1.19796 (Simulation time: 0 hr 6 min 22 sec) 
Heartbeat CPU 0 instructions: 220000000 cycles: 143453567 heartbeat IPC: 1.21936 cumulative IPC: 1.19971 (Simulation time: 0 hr 6 min 38 sec) 
Heartbeat CPU 0 instructions: 230000001 cycles: 151700216 heartbeat IPC: 1.21261 cumulative IPC: 1.2007 (Simulation time: 0 hr 6 min 54 sec) 
Heartbeat CPU 0 instructions: 240000001 cycles: 160003737 heartbeat IPC: 1.20431 cumulative IPC: 1.20095 (Simulation time: 0 hr 7 min 10 sec) 
Heartbeat CPU 0 instructions: 250000001 cycles: 168329043 heartbeat IPC: 1.20116 cumulative IPC: 1.20097 (Simulation time: 0 hr 7 min 26 sec) 
Heartbeat CPU 0 instructions: 260000000 cycles: 176652123 heartbeat IPC: 1.20148 cumulative IPC: 1.201 (Simulation time: 0 hr 7 min 42 sec) 
Heartbeat CPU 0 instructions: 270000002 cycles: 184977585 heartbeat IPC: 1.20113 cumulative IPC: 1.20101 (Simulation time: 0 hr 7 min 58 sec) 
Heartbeat CPU 0 instructions: 280000002 cycles: 193273974 heartbeat IPC: 1.20534 cumulative IPC: 1.20125 (Simulation time: 0 hr 8 min 14 sec) 
Heartbeat CPU 0 instructions: 290000002 cycles: 201611479 heartbeat IPC: 1.1994 cumulative IPC: 1.20115 (Simulation time: 0 hr 8 min 31 sec) 
Heartbeat CPU 0 instructions: 300000002 cycles: 209918407 heartbeat IPC: 1.20381 cumulative IPC: 1.20128 (Simulation time: 0 hr 8 min 47 sec) 
Heartbeat CPU 0 instructions: 310000002 cycles: 218167102 heartbeat IPC: 1.21231 cumulative IPC: 1.2018 (Simulation time: 0 hr 9 min 3 sec) 
Heartbeat CPU 0 instructions: 320000000 cycles: 226540480 heartbeat IPC: 1.19426 cumulative IPC: 1.20146 (Simulation time: 0 hr 9 min 19 sec) 
Heartbeat CPU 0 instructions: 330000000 cycles: 234869787 heartbeat IPC: 1.20058 cumulative IPC: 1.20142 (Simulation time: 0 hr 9 min 35 sec) 
Heartbeat CPU 0 instructions: 340000000 cycles: 243655041 heartbeat IPC: 1.13827 cumulative IPC: 1.19865 (Simulation time: 0 hr 9 min 56 sec) 
Heartbeat CPU 0 instructions: 350000000 cycles: 252389055 heartbeat IPC: 1.14495 cumulative IPC: 1.1964 (Simulation time: 0 hr 10 min 15 sec) 
Heartbeat CPU 0 instructions: 360000001 cycles: 261031612 heartbeat IPC: 1.15707 cumulative IPC: 1.19484 (Simulation time: 0 hr 10 min 34 sec) 
Heartbeat CPU 0 instructions: 370000000 cycles: 269617925 heartbeat IPC: 1.16464 cumulative IPC: 1.1937 (Simulation time: 0 hr 10 min 53 sec) 
Heartbeat CPU 0 instructions: 380000003 cycles: 278190247 heartbeat IPC: 1.16655 cumulative IPC: 1.1927 (Simulation time: 0 hr 11 min 12 sec) 
Heartbeat CPU 0 instructions: 390000000 cycles: 288410157 heartbeat IPC: 0.978482 cumulative IPC: 1.18377 (Simulation time: 0 hr 11 min 35 sec) 
Heartbeat CPU 0 instructions: 400000002 cycles: 296022670 heartbeat IPC: 1.31363 cumulative IPC: 1.18768 (Simulation time: 0 hr 11 min 53 sec) 
Heartbeat CPU 0 instructions: 410000001 cycles: 303746289 heartbeat IPC: 1.29473 cumulative IPC: 1.19086 (Simulation time: 0 hr 12 min 12 sec) 
Heartbeat CPU 0 instructions: 420000000 cycles: 311543644 heartbeat IPC: 1.28249 cumulative IPC: 1.19352 (Simulation time: 0 hr 12 min 30 sec) 
Heartbeat CPU 0 instructions: 430000002 cycles: 319324952 heartbeat IPC: 1.28513 cumulative IPC: 1.19611 (Simulation time: 0 hr 12 min 48 sec) 
Heartbeat CPU 0 instructions: 440000000 cycles: 327124275 heartbeat IPC: 1.28216 cumulative IPC: 1.19847 (Simulation time: 0 hr 13 min 6 sec) 
Heartbeat CPU 0 instructions: 450000000 cycles: 335057906 heartbeat IPC: 1.26046 cumulative IPC: 1.20016 (Simulation time: 0 hr 13 min 24 sec) 
Heartbeat CPU 0 instructions: 460000000 cycles: 342879073 heartbeat IPC: 1.27858 cumulative IPC: 1.20221 (Simulation time: 0 hr 13 min 43 sec) 
Heartbeat CPU 0 instructions: 470000003 cycles: 350539253 heartbeat IPC: 1.30545 cumulative IPC: 1.20478 (Simulation time: 0 hr 14 min 1 sec) 
Heartbeat CPU 0 instructions: 480000000 cycles: 358360347 heartbeat IPC: 1.27859 cumulative IPC: 1.20661 (Simulation time: 0 hr 14 min 19 sec) 
Heartbeat CPU 0 instructions: 490000000 cycles: 367873633 heartbeat IPC: 1.05116 cumulative IPC: 1.20206 (Simulation time: 0 hr 14 min 41 sec) 
Heartbeat CPU 0 instructions: 500000001 cycles: 377990306 heartbeat IPC: 0.988467 cumulative IPC: 1.1956 (Simulation time: 0 hr 15 min 6 sec) 
Heartbeat CPU 0 instructions: 510000001 cycles: 387978396 heartbeat IPC: 1.00119 cumulative IPC: 1.18996 (Simulation time: 0 hr 15 min 31 sec) 
Heartbeat CPU 0 instructions: 520000000 cycles: 397902519 heartbeat IPC: 1.00765 cumulative IPC: 1.18486 (Simulation time: 0 hr 15 min 57 sec) 
Heartbeat CPU 0 instructions: 530000002 cycles: 407724996 heartbeat IPC: 1.01807 cumulative IPC: 1.18036 (Simulation time: 0 hr 16 min 22 sec) 
Heartbeat CPU 0 instructions: 540000001 cycles: 417504333 heartbeat IPC: 1.02256 cumulative IPC: 1.17624 (Simulation time: 0 hr 16 min 47 sec) 
Heartbeat CPU 0 instructions: 550000000 cycles: 427289064 heartbeat IPC: 1.022 cumulative IPC: 1.1723 (Simulation time: 0 hr 17 min 12 sec) 
Heartbeat CPU 0 instructions: 560000000 cycles: 437140969 heartbeat IPC: 1.01503 cumulative IPC: 1.16837 (Simulation time: 0 hr 17 min 37 sec) 
Heartbeat CPU 0 instructions: 570000003 cycles: 447004352 heartbeat IPC: 1.01385 cumulative IPC: 1.16459 (Simulation time: 0 hr 18 min 2 sec) 
Heartbeat CPU 0 instructions: 580000000 cycles: 456854918 heartbeat IPC: 1.01517 cumulative IPC: 1.16103 (Simulation time: 0 hr 18 min 27 sec) 
Heartbeat CPU 0 instructions: 590000000 cycles: 466617453 heartbeat IPC: 1.02432 cumulative IPC: 1.15788 (Simulation time: 0 hr 18 min 52 sec) 
Heartbeat CPU 0 instructions: 600000001 cycles: 476329761 heartbeat IPC: 1.02962 cumulative IPC: 1.155 (Simulation time: 0 hr 19 min 17 sec) 
Heartbeat CPU 0 instructions: 610000000 cycles: 486162309 heartbeat IPC: 1.01703 cumulative IPC: 1.15194 (Simulation time: 0 hr 19 min 42 sec) 
Heartbeat CPU 0 instructions: 620000003 cycles: 500704547 heartbeat IPC: 0.687652 cumulative IPC: 1.13717 (Simulation time: 0 hr 20 min 6 sec) 
Heartbeat CPU 0 instructions: 630000001 cycles: 521193231 heartbeat IPC: 0.488074 cumulative IPC: 1.10934 (Simulation time: 0 hr 20 min 34 sec) 
Heartbeat CPU 0 instructions: 640000001 cycles: 537525329 heartbeat IPC: 0.612291 cumulative IPC: 1.09291 (Simulation time: 0 hr 21 min 1 sec) 
Heartbeat CPU 0 instructions: 650000001 cycles: 554286069 heartbeat IPC: 0.596632 cumulative IPC: 1.07662 (Simulation time: 0 hr 21 min 28 sec) 
Heartbeat CPU 0 instructions: 660000000 cycles: 567574150 heartbeat IPC: 0.752554 cumulative IPC: 1.06841 (Simulation time: 0 hr 21 min 55 sec) 
Heartbeat CPU 0 instructions: 670000003 cycles: 579797126 heartbeat IPC: 0.818132 cumulative IPC: 1.0627 (Simulation time: 0 hr 22 min 23 sec) 
Heartbeat CPU 0 instructions: 680000003 cycles: 601631534 heartbeat IPC: 0.457993 cumulative IPC: 1.03905 (Simulation time: 0 hr 22 min 56 sec) 
Heartbeat CPU 0 instructions: 690000000 cycles: 612692172 heartbeat IPC: 0.904107 cumulative IPC: 1.03643 (Simulation time: 0 hr 23 min 22 sec) 
Heartbeat CPU 0 instructions: 700000000 cycles: 622710126 heartbeat IPC: 0.998208 cumulative IPC: 1.03577 (Simulation time: 0 hr 23 min 48 sec) 
Heartbeat CPU 0 instructions: 710000002 cycles: 633929657 heartbeat IPC: 0.891303 cumulative IPC: 1.03302 (Simulation time: 0 hr 24 min 15 sec) 
Heartbeat CPU 0 instructions: 720000000 cycles: 644080386 heartbeat IPC: 0.985151 cumulative IPC: 1.03221 (Simulation time: 0 hr 24 min 40 sec) 
Heartbeat CPU 0 instructions: 730000003 cycles: 654311673 heartbeat IPC: 0.977394 cumulative IPC: 1.0313 (Simulation time: 0 hr 25 min 5 sec) 
Heartbeat CPU 0 instructions: 740000001 cycles: 669686130 heartbeat IPC: 0.650429 cumulative IPC: 1.02195 (Simulation time: 0 hr 25 min 34 sec) 
Heartbeat CPU 0 instructions: 750000003 cycles: 693055489 heartbeat IPC: 0.427911 cumulative IPC: 1.00058 (Simulation time: 0 hr 26 min 9 sec) 
Heartbeat CPU 0 instructions: 760000001 cycles: 708704666 heartbeat IPC: 0.639011 cumulative IPC: 0.992071 (Simulation time: 0 hr 26 min 40 sec) 
Heartbeat CPU 0 instructions: 770000000 cycles: 730808966 heartbeat IPC: 0.452401 cumulative IPC: 0.974717 (Simulation time: 0 hr 27 min 12 sec) 
Heartbeat CPU 0 instructions: 780000000 cycles: 745194657 heartbeat IPC: 0.695135 cumulative IPC: 0.968985 (Simulation time: 0 hr 27 min 40 sec) 
Heartbeat CPU 0 instructions: 790000003 cycles: 758859120 heartbeat IPC: 0.731826 cumulative IPC: 0.964456 (Simulation time: 0 hr 28 min 8 sec) 
Heartbeat CPU 0 instructions: 800000003 cycles: 775573540 heartbeat IPC: 0.598286 cumulative IPC: 0.956096 (Simulation time: 0 hr 28 min 36 sec) 
Heartbeat CPU 0 instructions: 810000000 cycles: 797531910 heartbeat IPC: 0.455407 cumulative IPC: 0.941517 (Simulation time: 0 hr 29 min 8 sec) 
Heartbeat CPU 0 instructions: 820000001 cycles: 824679657 heartbeat IPC: 0.368355 cumulative IPC: 0.9216 (Simulation time: 0 hr 29 min 43 sec) 
Heartbeat CPU 0 instructions: 830000003 cycles: 841544827 heartbeat IPC: 0.592938 cumulative IPC: 0.914655 (Simulation time: 0 hr 30 min 10 sec) 
Heartbeat CPU 0 instructions: 840000001 cycles: 860931422 heartbeat IPC: 0.51582 cumulative IPC: 0.905197 (Simulation time: 0 hr 30 min 40 sec) 
Heartbeat CPU 0 instructions: 850000003 cycles: 888836954 heartbeat IPC: 0.358352 cumulative IPC: 0.887146 (Simulation time: 0 hr 31 min 17 sec) 
Heartbeat CPU 0 instructions: 860000003 cycles: 904371700 heartbeat IPC: 0.643718 cumulative IPC: 0.882754 (Simulation time: 0 hr 31 min 46 sec) 
Heartbeat CPU 0 instructions: 870000003 cycles: 916289128 heartbeat IPC: 0.839107 cumulative IPC: 0.882158 (Simulation time: 0 hr 32 min 13 sec) 
Heartbeat CPU 0 instructions: 880000000 cycles: 930677434 heartbeat IPC: 0.695009 cumulative IPC: 0.879123 (Simulation time: 0 hr 32 min 41 sec) 
Heartbeat CPU 0 instructions: 890000002 cycles: 940967105 heartbeat IPC: 0.971849 cumulative IPC: 0.880186 (Simulation time: 0 hr 33 min 6 sec) 
Heartbeat CPU 0 instructions: 900000002 cycles: 953910249 heartbeat IPC: 0.77261 cumulative IPC: 0.878657 (Simulation time: 0 hr 33 min 33 sec) 
Heartbeat CPU 0 instructions: 910000002 cycles: 963739851 heartbeat IPC: 1.01734 cumulative IPC: 0.880138 (Simulation time: 0 hr 33 min 58 sec) 
Heartbeat CPU 0 instructions: 920000002 cycles: 976812997 heartbeat IPC: 0.764927 cumulative IPC: 0.878524 (Simulation time: 0 hr 34 min 26 sec) 
Heartbeat CPU 0 instructions: 930000003 cycles: 986375522 heartbeat IPC: 1.04575 cumulative IPC: 0.88022 (Simulation time: 0 hr 34 min 51 sec) 
Heartbeat CPU 0 instructions: 940000003 cycles: 999884105 heartbeat IPC: 0.74027 cumulative IPC: 0.878244 (Simulation time: 0 hr 35 min 18 sec) 
Heartbeat CPU 0 instructions: 950000001 cycles: 1008830687 heartbeat IPC: 1.11775 cumulative IPC: 0.880463 (Simulation time: 0 hr 35 min 43 sec) 
Heartbeat CPU 0 instructions: 960000001 cycles: 1022110061 heartbeat IPC: 0.753048 cumulative IPC: 0.878734 (Simulation time: 0 hr 36 min 10 sec) 
Heartbeat CPU 0 instructions: 970000000 cycles: 1029725070 heartbeat IPC: 1.3132 cumulative IPC: 0.882089 (Simulation time: 0 hr 36 min 32 sec) 
Heartbeat CPU 0 instructions: 980000003 cycles: 1037417667 heartbeat IPC: 1.29995 cumulative IPC: 0.885323 (Simulation time: 0 hr 36 min 54 sec) 
Heartbeat CPU 0 instructions: 990000000 cycles: 1045120110 heartbeat IPC: 1.29829 cumulative IPC: 0.888498 (Simulation time: 0 hr 37 min 16 sec) 
Heartbeat CPU 0 instructions: 1000000000 cycles: 1059177488 heartbeat IPC: 0.71137 cumulative IPC: 0.886047 (Simulation time: 0 hr 37 min 41 sec) 
Heartbeat CPU 0 instructions: 1010000002 cycles: 1079871116 heartbeat IPC: 0.483241 cumulative IPC: 0.878004 (Simulation time: 0 hr 38 min 10 sec) 
Heartbeat CPU 0 instructions: 1020000002 cycles: 1088997712 heartbeat IPC: 1.0957 cumulative IPC: 0.879905 (Simulation time: 0 hr 38 min 35 sec) 
Heartbeat CPU 0 instructions: 1030000000 cycles: 1099492608 heartbeat IPC: 0.952844 cumulative IPC: 0.880629 (Simulation time: 0 hr 39 min 2 sec) 
Heartbeat CPU 0 instructions: 1040000001 cycles: 1108873905 heartbeat IPC: 1.06595 cumulative IPC: 0.882261 (Simulation time: 0 hr 39 min 27 sec) 
Heartbeat CPU 0 instructions: 1050000001 cycles: 1117609057 heartbeat IPC: 1.1448 cumulative IPC: 0.884396 (Simulation time: 0 hr 39 min 51 sec) 
Heartbeat CPU 0 instructions: 1060000001 cycles: 1127137115 heartbeat IPC: 1.04953 cumulative IPC: 0.885848 (Simulation time: 0 hr 40 min 17 sec) 
Heartbeat CPU 0 instructions: 1070000003 cycles: 1136485412 heartbeat IPC: 1.06971 cumulative IPC: 0.88742 (Simulation time: 0 hr 40 min 42 sec) 
Heartbeat CPU 0 instructions: 1080000002 cycles: 1156215472 heartbeat IPC: 0.506841 cumulative IPC: 0.880673 (Simulation time: 0 hr 41 min 14 sec) 
Heartbeat CPU 0 instructions: 1090000002 cycles: 1174892067 heartbeat IPC: 0.535429 cumulative IPC: 0.874974 (Simulation time: 0 hr 41 min 47 sec) 
Heartbeat CPU 0 instructions: 1100000000 cycles: 1190935592 heartbeat IPC: 0.623304 cumulative IPC: 0.871455 (Simulation time: 0 hr 42 min 17 sec) 
Finished CPU 0 instructions: 1000000000 cycles: 1147505945 cumulative IPC: 0.871455 (Simulation time: 0 hr 42 min 17 sec) 

ChampSim completed all CPUs

Region of Interest Statistics

CPU 0 cumulative IPC: 0.871455 instructions: 1000000000 cycles: 1147505945
L1D TOTAL     ACCESS:  245163862  HIT:  231858583  MISS:   13305279
L1D LOAD      ACCESS:  185471046  HIT:  175930544  MISS:    9540502
L1D RFO       ACCESS:   59692816  HIT:   55928039  MISS:    3764777
L1D PREFETCH  ACCESS:          0  HIT:          0  MISS:          0
L1D WRITEBACK ACCESS:          0  HIT:          0  MISS:          0
L1D PREFETCH  REQUESTED:          0  ISSUED:          0  USEFUL:          0  USELESS:          0
L1D AVERAGE MISS LATENCY: 142.326 cycles
L1I TOTAL     ACCESS:  171465365  HIT:  170762623  MISS:     702742
L1I LOAD      ACCESS:  171465365  HIT:  170762623  MISS:     702742
L1I RFO       ACCESS:          0  HIT:          0  MISS:          0
L1I PREFETCH  ACCESS:          0  HIT:          0  MISS:          0
L1I WRITEBACK ACCESS:          0  HIT:          0  MISS:          0
L1I PREFETCH  REQUESTED:          0  ISSUED:          0  USEFUL:          0  USELESS:          0
L1I AVERAGE MISS LATENCY: 22.1835 cycles
L2C TOTAL     ACCESS:   19729224  HIT:   12369975  MISS:    7359249
L2C LOAD      ACCESS:   10242317  HIT:    4594355  MISS:    5647962
L2C RFO       ACCESS:    3742323  HIT:    2037962  MISS:    1704361
L2C PREFETCH  ACCESS:          0  HIT:          0  MISS:          0
L2C WRITEBACK ACCESS:    5744584  HIT:    5737658  MISS:       6926
L2C PREFETCH  REQUESTED:          0  ISSUED:          0  USEFUL:          0  USELESS:          0
L2C AVERAGE MISS LATENCY: 235.511 cycles
LLC TOTAL     ACCESS:   10679483  HIT:    2524238  MISS:    8155245
LLC LOAD      ACCESS:    5647949  HIT:     939500  MISS:    4708449
LLC RFO       ACCESS:    1704346  HIT:     465608  MISS:    1238738
LLC PREFETCH  ACCESS:          0  HIT:          0  MISS:          0
LLC WRITEBACK ACCESS:    3327188  HIT:    1119130  MISS:    2208058
LLC PREFETCH  REQUESTED:          0  ISSUED:          0  USEFUL:          0  USELESS:          0
LLC AVERAGE MISS LATENCY: 175.898 cycles
Major fault: 0 Minor fault: 19417
==============================
Perceptron RRIP Stats:
   Num Updates:          1184273
   Num Primary Trains:   14293
   Num Secondary Trains: 13851
==============================
primary_perceptron #0: -1 3 5 1 -5 -1 -1 -3 5 1 -3 3 3 3 5 -19 
secondary_perceptron #0: 1 3 11 1 -13 -1 1 -1 3 -1 -5 3 1 1 5 -3 1 1 1 1 -23 


DRAM Statistics
 CHANNEL 0
 RQ ROW_BUFFER_HIT:    1231625  ROW_BUFFER_MISS:    4715277
 DBUS_CONGESTED:    2842724
 WQ ROW_BUFFER_HIT:    1434350  ROW_BUFFER_MISS:    1233021  FULL:     181904

 AVG_CONGESTED_CYCLE: 6

CPU 0 Branch Prediction Accuracy: 97.1042% MPKI: 2.81547 Average ROB Occupancy at Mispredict: 112.343

Branch types
NOT_BRANCH: 902775037 90.2775%
BRANCH_DIRECT_JUMP: 4806588 0.480659%
BRANCH_INDIRECT: 59 5.9e-06%
BRANCH_CONDITIONAL: 81914089 8.19141%
BRANCH_DIRECT_CALL: 5252089 0.525209%
BRANCH_INDIRECT_CALL: 0 0%
BRANCH_RETURN: 5252094 0.525209%
BRANCH_OTHER: 0 0%

