
*** ChampSim Multicore Out-of-Order Simulator ***

Warmup Instructions: 100000000
Simulation Instructions: 1000000000
Number of CPUs: 1
LLC sets: 2048
LLC ways: 16
Off-chip DRAM Size: 4096 MB Channels: 1 Width: 64-bit Data Rate: 3200 MT/s

CPU 0 runs /scratch/user/kevin.weston/dpc3-traces/621.champsimtrace.xz
CPU 0 Bimodal branch predictor
Per-line RRPV Initialized
PRRIP State Initialized
Assign SAMPLER_SET[0]: 454  LLC: 2048
SAMPLER_SET[0]: 454
Assign SAMPLER_SET[1]: 1662  LLC: 2048
SAMPLER_SET[1]: 1662
Assign SAMPLER_SET[2]: 1921  LLC: 2048
SAMPLER_SET[2]: 1921
Assign SAMPLER_SET[3]: 1131  LLC: 2048
SAMPLER_SET[3]: 1131
Assign SAMPLER_SET[4]: 331  LLC: 2048
SAMPLER_SET[4]: 331
Assign SAMPLER_SET[5]: 1531  LLC: 2048
SAMPLER_SET[5]: 1531
Assign SAMPLER_SET[6]: 482  LLC: 2048
SAMPLER_SET[6]: 482
Assign SAMPLER_SET[7]: 1275  LLC: 2048
SAMPLER_SET[7]: 1275
Assign SAMPLER_SET[8]: 1876  LLC: 2048
SAMPLER_SET[8]: 1876
Assign SAMPLER_SET[9]: 2038  LLC: 2048
SAMPLER_SET[9]: 2038
Assign SAMPLER_SET[10]: 701  LLC: 2048
SAMPLER_SET[10]: 701
Assign SAMPLER_SET[11]: 479  LLC: 2048
SAMPLER_SET[11]: 479
Assign SAMPLER_SET[12]: 892  LLC: 2048
SAMPLER_SET[12]: 892
Assign SAMPLER_SET[13]: 1820  LLC: 2048
SAMPLER_SET[13]: 1820
Assign SAMPLER_SET[14]: 1505  LLC: 2048
SAMPLER_SET[14]: 1505
Assign SAMPLER_SET[15]: 1159  LLC: 2048
SAMPLER_SET[15]: 1159
Assign SAMPLER_SET[16]: 513  LLC: 2048
SAMPLER_SET[16]: 513
Assign SAMPLER_SET[17]: 703  LLC: 2048
SAMPLER_SET[17]: 703
Assign SAMPLER_SET[18]: 561  LLC: 2048
SAMPLER_SET[18]: 561
Assign SAMPLER_SET[19]: 990  LLC: 2048
SAMPLER_SET[19]: 990
Assign SAMPLER_SET[20]: 342  LLC: 2048
SAMPLER_SET[20]: 342
Assign SAMPLER_SET[21]: 882  LLC: 2048
SAMPLER_SET[21]: 882
Assign SAMPLER_SET[22]: 15  LLC: 2048
SAMPLER_SET[22]: 15
Assign SAMPLER_SET[23]: 71  LLC: 2048
SAMPLER_SET[23]: 71
Assign SAMPLER_SET[24]: 1127  LLC: 2048
SAMPLER_SET[24]: 1127
Assign SAMPLER_SET[25]: 1382  LLC: 2048
SAMPLER_SET[25]: 1382
Assign SAMPLER_SET[26]: 647  LLC: 2048
SAMPLER_SET[26]: 647
Assign SAMPLER_SET[27]: 857  LLC: 2048
SAMPLER_SET[27]: 857
Assign SAMPLER_SET[28]: 1450  LLC: 2048
SAMPLER_SET[28]: 1450
Assign SAMPLER_SET[29]: 1160  LLC: 2048
SAMPLER_SET[29]: 1160
Assign SAMPLER_SET[30]: 1852  LLC: 2048
SAMPLER_SET[30]: 1852
Assign SAMPLER_SET[31]: 1881  LLC: 2048
SAMPLER_SET[31]: 1881
Assign SAMPLER_SET[32]: 1770  LLC: 2048
SAMPLER_SET[32]: 1770
Assign SAMPLER_SET[33]: 1622  LLC: 2048
SAMPLER_SET[33]: 1622
Assign SAMPLER_SET[34]: 275  LLC: 2048
SAMPLER_SET[34]: 275
Assign SAMPLER_SET[35]: 635  LLC: 2048
SAMPLER_SET[35]: 635
Assign SAMPLER_SET[36]: 466  LLC: 2048
SAMPLER_SET[36]: 466
Assign SAMPLER_SET[37]: 1413  LLC: 2048
SAMPLER_SET[37]: 1413
Assign SAMPLER_SET[38]: 417  LLC: 2048
SAMPLER_SET[38]: 417
Assign SAMPLER_SET[39]: 472  LLC: 2048
SAMPLER_SET[39]: 472
Assign SAMPLER_SET[40]: 1340  LLC: 2048
SAMPLER_SET[40]: 1340
Assign SAMPLER_SET[41]: 852  LLC: 2048
SAMPLER_SET[41]: 852
Assign SAMPLER_SET[42]: 1365  LLC: 2048
SAMPLER_SET[42]: 1365
Assign SAMPLER_SET[43]: 47  LLC: 2048
SAMPLER_SET[43]: 47
Assign SAMPLER_SET[44]: 823  LLC: 2048
SAMPLER_SET[44]: 823
Assign SAMPLER_SET[45]: 686  LLC: 2048
SAMPLER_SET[45]: 686
Assign SAMPLER_SET[46]: 1637  LLC: 2048
SAMPLER_SET[46]: 1637
Assign SAMPLER_SET[47]: 1115  LLC: 2048
SAMPLER_SET[47]: 1115
Assign SAMPLER_SET[48]: 986  LLC: 2048
SAMPLER_SET[48]: 986
Assign SAMPLER_SET[49]: 258  LLC: 2048
SAMPLER_SET[49]: 258
Assign SAMPLER_SET[50]: 633  LLC: 2048
SAMPLER_SET[50]: 633
Assign SAMPLER_SET[51]: 920  LLC: 2048
SAMPLER_SET[51]: 920
Assign SAMPLER_SET[52]: 204  LLC: 2048
SAMPLER_SET[52]: 204
Assign SAMPLER_SET[53]: 227  LLC: 2048
SAMPLER_SET[53]: 227
Assign SAMPLER_SET[54]: 1818  LLC: 2048
SAMPLER_SET[54]: 1818
Assign SAMPLER_SET[55]: 886  LLC: 2048
SAMPLER_SET[55]: 886
Assign SAMPLER_SET[56]: 1422  LLC: 2048
SAMPLER_SET[56]: 1422
Assign SAMPLER_SET[57]: 607  LLC: 2048
SAMPLER_SET[57]: 607
Assign SAMPLER_SET[58]: 217  LLC: 2048
SAMPLER_SET[58]: 217
Assign SAMPLER_SET[59]: 1945  LLC: 2048
SAMPLER_SET[59]: 1945
Assign SAMPLER_SET[60]: 143  LLC: 2048
SAMPLER_SET[60]: 143
Assign SAMPLER_SET[61]: 1311  LLC: 2048
SAMPLER_SET[61]: 1311
Assign SAMPLER_SET[62]: 319  LLC: 2048
SAMPLER_SET[62]: 319
Assign SAMPLER_SET[63]: 1846  LLC: 2048
SAMPLER_SET[63]: 1846
Heartbeat CPU 0 instructions: 10000000 cycles: 4328694 heartbeat IPC: 2.31017 cumulative IPC: 2.31017 (Simulation time: 0 hr 0 min 21 sec) 
Heartbeat CPU 0 instructions: 20000002 cycles: 8673385 heartbeat IPC: 2.30166 cumulative IPC: 2.30591 (Simulation time: 0 hr 0 min 42 sec) 
Heartbeat CPU 0 instructions: 30000000 cycles: 13029447 heartbeat IPC: 2.29565 cumulative IPC: 2.30248 (Simulation time: 0 hr 1 min 2 sec) 
Heartbeat CPU 0 instructions: 40000002 cycles: 17381326 heartbeat IPC: 2.29786 cumulative IPC: 2.30132 (Simulation time: 0 hr 1 min 22 sec) 
Heartbeat CPU 0 instructions: 50000002 cycles: 21731060 heartbeat IPC: 2.29899 cumulative IPC: 2.30085 (Simulation time: 0 hr 1 min 43 sec) 
Heartbeat CPU 0 instructions: 60000003 cycles: 26077316 heartbeat IPC: 2.30083 cumulative IPC: 2.30085 (Simulation time: 0 hr 2 min 3 sec) 
Heartbeat CPU 0 instructions: 70000000 cycles: 30419787 heartbeat IPC: 2.30284 cumulative IPC: 2.30113 (Simulation time: 0 hr 2 min 24 sec) 
Heartbeat CPU 0 instructions: 80000000 cycles: 34749580 heartbeat IPC: 2.30958 cumulative IPC: 2.30219 (Simulation time: 0 hr 2 min 44 sec) 
Heartbeat CPU 0 instructions: 90000000 cycles: 39094725 heartbeat IPC: 2.30142 cumulative IPC: 2.3021 (Simulation time: 0 hr 3 min 5 sec) 
Heartbeat CPU 0 instructions: 100000001 cycles: 43429709 heartbeat IPC: 2.30681 cumulative IPC: 2.30257 (Simulation time: 0 hr 3 min 25 sec) 

Warmup complete CPU 0 instructions: 100000001 cycles: 43429709 (Simulation time: 0 hr 3 min 25 sec) 

Heartbeat CPU 0 instructions: 110000000 cycles: 51879182 heartbeat IPC: 1.18351 cumulative IPC: 1.18351 (Simulation time: 0 hr 3 min 42 sec) 
Heartbeat CPU 0 instructions: 120000001 cycles: 60267527 heartbeat IPC: 1.19213 cumulative IPC: 1.1878 (Simulation time: 0 hr 3 min 59 sec) 
Heartbeat CPU 0 instructions: 130000000 cycles: 68699569 heartbeat IPC: 1.18595 cumulative IPC: 1.18719 (Simulation time: 0 hr 4 min 16 sec) 
Heartbeat CPU 0 instructions: 140000001 cycles: 77110967 heartbeat IPC: 1.18886 cumulative IPC: 1.1876 (Simulation time: 0 hr 4 min 33 sec) 
Heartbeat CPU 0 instructions: 150000000 cycles: 85402605 heartbeat IPC: 1.20603 cumulative IPC: 1.19124 (Simulation time: 0 hr 4 min 49 sec) 
Heartbeat CPU 0 instructions: 160000002 cycles: 93721332 heartbeat IPC: 1.20211 cumulative IPC: 1.19304 (Simulation time: 0 hr 5 min 5 sec) 
Heartbeat CPU 0 instructions: 170000001 cycles: 102012440 heartbeat IPC: 1.20611 cumulative IPC: 1.19489 (Simulation time: 0 hr 5 min 22 sec) 
Heartbeat CPU 0 instructions: 180000000 cycles: 110324462 heartbeat IPC: 1.20308 cumulative IPC: 1.19591 (Simulation time: 0 hr 5 min 39 sec) 
Heartbeat CPU 0 instructions: 190000003 cycles: 118674129 heartbeat IPC: 1.19765 cumulative IPC: 1.1961 (Simulation time: 0 hr 5 min 55 sec) 
Heartbeat CPU 0 instructions: 200000000 cycles: 127011524 heartbeat IPC: 1.19942 cumulative IPC: 1.19643 (Simulation time: 0 hr 6 min 12 sec) 
Heartbeat CPU 0 instructions: 210000001 cycles: 135252891 heartbeat IPC: 1.21339 cumulative IPC: 1.19795 (Simulation time: 0 hr 6 min 28 sec) 
Heartbeat CPU 0 instructions: 220000000 cycles: 143453711 heartbeat IPC: 1.21939 cumulative IPC: 1.19971 (Simulation time: 0 hr 6 min 45 sec) 
Heartbeat CPU 0 instructions: 230000001 cycles: 151699910 heartbeat IPC: 1.21268 cumulative IPC: 1.2007 (Simulation time: 0 hr 7 min 1 sec) 
Heartbeat CPU 0 instructions: 240000001 cycles: 160003524 heartbeat IPC: 1.20429 cumulative IPC: 1.20096 (Simulation time: 0 hr 7 min 18 sec) 
Heartbeat CPU 0 instructions: 250000001 cycles: 168328671 heartbeat IPC: 1.20118 cumulative IPC: 1.20097 (Simulation time: 0 hr 7 min 34 sec) 
Heartbeat CPU 0 instructions: 260000000 cycles: 176651309 heartbeat IPC: 1.20154 cumulative IPC: 1.20101 (Simulation time: 0 hr 7 min 51 sec) 
Heartbeat CPU 0 instructions: 270000002 cycles: 184976352 heartbeat IPC: 1.2012 cumulative IPC: 1.20102 (Simulation time: 0 hr 8 min 8 sec) 
Heartbeat CPU 0 instructions: 280000002 cycles: 193272613 heartbeat IPC: 1.20536 cumulative IPC: 1.20126 (Simulation time: 0 hr 8 min 24 sec) 
Heartbeat CPU 0 instructions: 290000002 cycles: 201609797 heartbeat IPC: 1.19945 cumulative IPC: 1.20116 (Simulation time: 0 hr 8 min 41 sec) 
Heartbeat CPU 0 instructions: 300000002 cycles: 209916559 heartbeat IPC: 1.20384 cumulative IPC: 1.2013 (Simulation time: 0 hr 8 min 57 sec) 
Heartbeat CPU 0 instructions: 310000002 cycles: 218165255 heartbeat IPC: 1.21231 cumulative IPC: 1.20182 (Simulation time: 0 hr 9 min 14 sec) 
Heartbeat CPU 0 instructions: 320000000 cycles: 226538828 heartbeat IPC: 1.19423 cumulative IPC: 1.20147 (Simulation time: 0 hr 9 min 30 sec) 
Heartbeat CPU 0 instructions: 330000000 cycles: 234868103 heartbeat IPC: 1.20058 cumulative IPC: 1.20143 (Simulation time: 0 hr 9 min 46 sec) 
Heartbeat CPU 0 instructions: 340000000 cycles: 243654706 heartbeat IPC: 1.1381 cumulative IPC: 1.19865 (Simulation time: 0 hr 10 min 8 sec) 
Heartbeat CPU 0 instructions: 350000000 cycles: 252388406 heartbeat IPC: 1.14499 cumulative IPC: 1.19641 (Simulation time: 0 hr 10 min 27 sec) 
Heartbeat CPU 0 instructions: 360000001 cycles: 261030473 heartbeat IPC: 1.15713 cumulative IPC: 1.19485 (Simulation time: 0 hr 10 min 46 sec) 
Heartbeat CPU 0 instructions: 370000000 cycles: 269618003 heartbeat IPC: 1.16448 cumulative IPC: 1.1937 (Simulation time: 0 hr 11 min 6 sec) 
Heartbeat CPU 0 instructions: 380000003 cycles: 278183900 heartbeat IPC: 1.16742 cumulative IPC: 1.19274 (Simulation time: 0 hr 11 min 25 sec) 
Heartbeat CPU 0 instructions: 390000000 cycles: 288396458 heartbeat IPC: 0.979186 cumulative IPC: 1.18383 (Simulation time: 0 hr 11 min 48 sec) 
Heartbeat CPU 0 instructions: 400000002 cycles: 295971183 heartbeat IPC: 1.32018 cumulative IPC: 1.18792 (Simulation time: 0 hr 12 min 7 sec) 
Heartbeat CPU 0 instructions: 410000001 cycles: 303700204 heartbeat IPC: 1.29382 cumulative IPC: 1.19107 (Simulation time: 0 hr 12 min 26 sec) 
Heartbeat CPU 0 instructions: 420000000 cycles: 311478171 heartbeat IPC: 1.28568 cumulative IPC: 1.19381 (Simulation time: 0 hr 12 min 45 sec) 
Heartbeat CPU 0 instructions: 430000002 cycles: 319261473 heartbeat IPC: 1.2848 cumulative IPC: 1.19638 (Simulation time: 0 hr 13 min 3 sec) 
Heartbeat CPU 0 instructions: 440000000 cycles: 327035094 heartbeat IPC: 1.2864 cumulative IPC: 1.19885 (Simulation time: 0 hr 13 min 22 sec) 
Heartbeat CPU 0 instructions: 450000000 cycles: 334917629 heartbeat IPC: 1.26863 cumulative IPC: 1.20074 (Simulation time: 0 hr 13 min 40 sec) 
Heartbeat CPU 0 instructions: 460000000 cycles: 342621384 heartbeat IPC: 1.29807 cumulative IPC: 1.20324 (Simulation time: 0 hr 13 min 59 sec) 
Heartbeat CPU 0 instructions: 470000003 cycles: 350222299 heartbeat IPC: 1.31563 cumulative IPC: 1.20603 (Simulation time: 0 hr 14 min 18 sec) 
Heartbeat CPU 0 instructions: 480000000 cycles: 357983827 heartbeat IPC: 1.28841 cumulative IPC: 1.20806 (Simulation time: 0 hr 14 min 36 sec) 
Heartbeat CPU 0 instructions: 490000000 cycles: 367427193 heartbeat IPC: 1.05894 cumulative IPC: 1.20371 (Simulation time: 0 hr 14 min 58 sec) 
Heartbeat CPU 0 instructions: 500000001 cycles: 377538041 heartbeat IPC: 0.989037 cumulative IPC: 1.19722 (Simulation time: 0 hr 15 min 24 sec) 
Heartbeat CPU 0 instructions: 510000001 cycles: 387609709 heartbeat IPC: 0.992884 cumulative IPC: 1.19124 (Simulation time: 0 hr 15 min 50 sec) 
Heartbeat CPU 0 instructions: 520000000 cycles: 397561693 heartbeat IPC: 1.00482 cumulative IPC: 1.186 (Simulation time: 0 hr 16 min 16 sec) 
Heartbeat CPU 0 instructions: 530000002 cycles: 407456854 heartbeat IPC: 1.0106 cumulative IPC: 1.18123 (Simulation time: 0 hr 16 min 41 sec) 
Heartbeat CPU 0 instructions: 540000001 cycles: 417276921 heartbeat IPC: 1.01832 cumulative IPC: 1.17695 (Simulation time: 0 hr 17 min 6 sec) 
Heartbeat CPU 0 instructions: 550000000 cycles: 427086057 heartbeat IPC: 1.01946 cumulative IPC: 1.17292 (Simulation time: 0 hr 17 min 32 sec) 
Heartbeat CPU 0 instructions: 560000000 cycles: 436937768 heartbeat IPC: 1.01505 cumulative IPC: 1.16897 (Simulation time: 0 hr 17 min 57 sec) 
Heartbeat CPU 0 instructions: 570000003 cycles: 446815723 heartbeat IPC: 1.01236 cumulative IPC: 1.16514 (Simulation time: 0 hr 18 min 23 sec) 
Heartbeat CPU 0 instructions: 580000000 cycles: 456692426 heartbeat IPC: 1.01248 cumulative IPC: 1.16149 (Simulation time: 0 hr 18 min 48 sec) 
Heartbeat CPU 0 instructions: 590000000 cycles: 466503282 heartbeat IPC: 1.01928 cumulative IPC: 1.15819 (Simulation time: 0 hr 19 min 13 sec) 
Heartbeat CPU 0 instructions: 600000001 cycles: 476239284 heartbeat IPC: 1.02712 cumulative IPC: 1.15524 (Simulation time: 0 hr 19 min 38 sec) 
Heartbeat CPU 0 instructions: 610000000 cycles: 486084307 heartbeat IPC: 1.01574 cumulative IPC: 1.15214 (Simulation time: 0 hr 20 min 5 sec) 
Heartbeat CPU 0 instructions: 620000003 cycles: 500772390 heartbeat IPC: 0.680824 cumulative IPC: 1.137 (Simulation time: 0 hr 20 min 29 sec) 
Heartbeat CPU 0 instructions: 630000001 cycles: 522474628 heartbeat IPC: 0.460782 cumulative IPC: 1.10637 (Simulation time: 0 hr 20 min 58 sec) 
Heartbeat CPU 0 instructions: 640000001 cycles: 541647723 heartbeat IPC: 0.521564 cumulative IPC: 1.08386 (Simulation time: 0 hr 21 min 28 sec) 
Heartbeat CPU 0 instructions: 650000001 cycles: 559484929 heartbeat IPC: 0.560626 cumulative IPC: 1.06578 (Simulation time: 0 hr 21 min 57 sec) 
Heartbeat CPU 0 instructions: 660000000 cycles: 572611443 heartbeat IPC: 0.761817 cumulative IPC: 1.05824 (Simulation time: 0 hr 22 min 26 sec) 
Heartbeat CPU 0 instructions: 670000003 cycles: 585309698 heartbeat IPC: 0.78751 cumulative IPC: 1.05189 (Simulation time: 0 hr 22 min 54 sec) 
Heartbeat CPU 0 instructions: 680000003 cycles: 607079326 heartbeat IPC: 0.459356 cumulative IPC: 1.02901 (Simulation time: 0 hr 23 min 29 sec) 
Heartbeat CPU 0 instructions: 690000000 cycles: 618178191 heartbeat IPC: 0.900993 cumulative IPC: 1.02654 (Simulation time: 0 hr 23 min 57 sec) 
Heartbeat CPU 0 instructions: 700000000 cycles: 628009901 heartbeat IPC: 1.01712 cumulative IPC: 1.02638 (Simulation time: 0 hr 24 min 24 sec) 
Heartbeat CPU 0 instructions: 710000002 cycles: 638754170 heartbeat IPC: 0.930729 cumulative IPC: 1.02465 (Simulation time: 0 hr 24 min 52 sec) 
Heartbeat CPU 0 instructions: 720000000 cycles: 648385193 heartbeat IPC: 1.03831 cumulative IPC: 1.02487 (Simulation time: 0 hr 25 min 19 sec) 
Heartbeat CPU 0 instructions: 730000003 cycles: 658547502 heartbeat IPC: 0.984029 cumulative IPC: 1.02419 (Simulation time: 0 hr 25 min 47 sec) 
Heartbeat CPU 0 instructions: 740000001 cycles: 672417350 heartbeat IPC: 0.720988 cumulative IPC: 1.01751 (Simulation time: 0 hr 26 min 16 sec) 
Heartbeat CPU 0 instructions: 750000003 cycles: 691906338 heartbeat IPC: 0.51311 cumulative IPC: 1.00235 (Simulation time: 0 hr 26 min 52 sec) 
Heartbeat CPU 0 instructions: 760000001 cycles: 707474697 heartbeat IPC: 0.642328 cumulative IPC: 0.993909 (Simulation time: 0 hr 27 min 26 sec) 
Heartbeat CPU 0 instructions: 770000000 cycles: 729892751 heartbeat IPC: 0.446069 cumulative IPC: 0.976018 (Simulation time: 0 hr 27 min 59 sec) 
Heartbeat CPU 0 instructions: 780000000 cycles: 744772824 heartbeat IPC: 0.67204 cumulative IPC: 0.969568 (Simulation time: 0 hr 28 min 29 sec) 
Heartbeat CPU 0 instructions: 790000003 cycles: 758183201 heartbeat IPC: 0.745691 cumulative IPC: 0.965368 (Simulation time: 0 hr 28 min 58 sec) 
Heartbeat CPU 0 instructions: 800000003 cycles: 774578216 heartbeat IPC: 0.609941 cumulative IPC: 0.957398 (Simulation time: 0 hr 29 min 27 sec) 
Heartbeat CPU 0 instructions: 810000000 cycles: 796288440 heartbeat IPC: 0.460612 cumulative IPC: 0.943072 (Simulation time: 0 hr 30 min 1 sec) 
Heartbeat CPU 0 instructions: 820000001 cycles: 823665520 heartbeat IPC: 0.365269 cumulative IPC: 0.922798 (Simulation time: 0 hr 30 min 38 sec) 
Heartbeat CPU 0 instructions: 830000003 cycles: 839639678 heartbeat IPC: 0.626011 cumulative IPC: 0.916844 (Simulation time: 0 hr 31 min 5 sec) 
Heartbeat CPU 0 instructions: 840000001 cycles: 859065967 heartbeat IPC: 0.514766 cumulative IPC: 0.907267 (Simulation time: 0 hr 31 min 37 sec) 
Heartbeat CPU 0 instructions: 850000003 cycles: 887274459 heartbeat IPC: 0.354503 cumulative IPC: 0.888789 (Simulation time: 0 hr 32 min 16 sec) 
Heartbeat CPU 0 instructions: 860000003 cycles: 903002056 heartbeat IPC: 0.635825 cumulative IPC: 0.884161 (Simulation time: 0 hr 32 min 48 sec) 
Heartbeat CPU 0 instructions: 870000003 cycles: 914868352 heartbeat IPC: 0.842723 cumulative IPC: 0.883596 (Simulation time: 0 hr 33 min 15 sec) 
Heartbeat CPU 0 instructions: 880000000 cycles: 929064132 heartbeat IPC: 0.704435 cumulative IPC: 0.880725 (Simulation time: 0 hr 33 min 44 sec) 
Heartbeat CPU 0 instructions: 890000002 cycles: 939445954 heartbeat IPC: 0.963222 cumulative IPC: 0.88168 (Simulation time: 0 hr 34 min 10 sec) 
Heartbeat CPU 0 instructions: 900000002 cycles: 952196473 heartbeat IPC: 0.784282 cumulative IPC: 0.880314 (Simulation time: 0 hr 34 min 39 sec) 
Heartbeat CPU 0 instructions: 910000002 cycles: 961591764 heartbeat IPC: 1.06436 cumulative IPC: 0.882197 (Simulation time: 0 hr 35 min 4 sec) 
Heartbeat CPU 0 instructions: 920000002 cycles: 974549622 heartbeat IPC: 0.771733 cumulative IPC: 0.88066 (Simulation time: 0 hr 35 min 32 sec) 
Heartbeat CPU 0 instructions: 930000003 cycles: 983509039 heartbeat IPC: 1.11614 cumulative IPC: 0.882904 (Simulation time: 0 hr 35 min 58 sec) 
Heartbeat CPU 0 instructions: 940000003 cycles: 996455986 heartbeat IPC: 0.772383 cumulative IPC: 0.881403 (Simulation time: 0 hr 36 min 27 sec) 
Heartbeat CPU 0 instructions: 950000001 cycles: 1004705580 heartbeat IPC: 1.21218 cumulative IPC: 0.884241 (Simulation time: 0 hr 36 min 51 sec) 
Heartbeat CPU 0 instructions: 960000001 cycles: 1017967616 heartbeat IPC: 0.754032 cumulative IPC: 0.88247 (Simulation time: 0 hr 37 min 19 sec) 
Heartbeat CPU 0 instructions: 970000000 cycles: 1025661915 heartbeat IPC: 1.29966 cumulative IPC: 0.885738 (Simulation time: 0 hr 37 min 42 sec) 
Heartbeat CPU 0 instructions: 980000003 cycles: 1033356413 heartbeat IPC: 1.29963 cumulative IPC: 0.888955 (Simulation time: 0 hr 38 min 4 sec) 
Heartbeat CPU 0 instructions: 990000000 cycles: 1041015081 heartbeat IPC: 1.30571 cumulative IPC: 0.892154 (Simulation time: 0 hr 38 min 27 sec) 
Heartbeat CPU 0 instructions: 1000000000 cycles: 1055040944 heartbeat IPC: 0.712969 cumulative IPC: 0.88967 (Simulation time: 0 hr 38 min 52 sec) 
Heartbeat CPU 0 instructions: 1010000002 cycles: 1075211972 heartbeat IPC: 0.495761 cumulative IPC: 0.881969 (Simulation time: 0 hr 39 min 22 sec) 
Heartbeat CPU 0 instructions: 1020000002 cycles: 1084553446 heartbeat IPC: 1.07049 cumulative IPC: 0.883661 (Simulation time: 0 hr 39 min 48 sec) 
Heartbeat CPU 0 instructions: 1030000000 cycles: 1095050493 heartbeat IPC: 0.952649 cumulative IPC: 0.884349 (Simulation time: 0 hr 40 min 15 sec) 
Heartbeat CPU 0 instructions: 1040000001 cycles: 1106271154 heartbeat IPC: 0.891213 cumulative IPC: 0.884422 (Simulation time: 0 hr 40 min 42 sec) 
Heartbeat CPU 0 instructions: 1050000001 cycles: 1115795687 heartbeat IPC: 1.04992 cumulative IPC: 0.885892 (Simulation time: 0 hr 41 min 8 sec) 
Heartbeat CPU 0 instructions: 1060000001 cycles: 1126679623 heartbeat IPC: 0.918785 cumulative IPC: 0.886222 (Simulation time: 0 hr 41 min 36 sec) 
Heartbeat CPU 0 instructions: 1070000003 cycles: 1137102523 heartbeat IPC: 0.959426 cumulative IPC: 0.88692 (Simulation time: 0 hr 42 min 2 sec) 
Heartbeat CPU 0 instructions: 1080000002 cycles: 1156948985 heartbeat IPC: 0.503868 cumulative IPC: 0.880093 (Simulation time: 0 hr 42 min 35 sec) 
Heartbeat CPU 0 instructions: 1090000002 cycles: 1175642830 heartbeat IPC: 0.534935 cumulative IPC: 0.874394 (Simulation time: 0 hr 43 min 8 sec) 
Heartbeat CPU 0 instructions: 1100000000 cycles: 1192056504 heartbeat IPC: 0.609248 cumulative IPC: 0.870605 (Simulation time: 0 hr 43 min 39 sec) 
Finished CPU 0 instructions: 1000000000 cycles: 1148626856 cumulative IPC: 0.870605 (Simulation time: 0 hr 43 min 39 sec) 

ChampSim completed all CPUs

Region of Interest Statistics

CPU 0 cumulative IPC: 0.870605 instructions: 1000000000 cycles: 1148626856
L1D TOTAL     ACCESS:  245250581  HIT:  231945953  MISS:   13304628
L1D LOAD      ACCESS:  185570163  HIT:  176029795  MISS:    9540368
L1D RFO       ACCESS:   59680418  HIT:   55916158  MISS:    3764260
L1D PREFETCH  ACCESS:          0  HIT:          0  MISS:          0
L1D WRITEBACK ACCESS:          0  HIT:          0  MISS:          0
L1D PREFETCH  REQUESTED:          0  ISSUED:          0  USEFUL:          0  USELESS:          0
L1D AVERAGE MISS LATENCY: 142.586 cycles
L1I TOTAL     ACCESS:  171507597  HIT:  170804855  MISS:     702742
L1I LOAD      ACCESS:  171507597  HIT:  170804855  MISS:     702742
L1I RFO       ACCESS:          0  HIT:          0  MISS:          0
L1I PREFETCH  ACCESS:          0  HIT:          0  MISS:          0
L1I WRITEBACK ACCESS:          0  HIT:          0  MISS:          0
L1I PREFETCH  REQUESTED:          0  ISSUED:          0  USEFUL:          0  USELESS:          0
L1I AVERAGE MISS LATENCY: 22.4317 cycles
L2C TOTAL     ACCESS:   19728206  HIT:   12387868  MISS:    7340338
L2C LOAD      ACCESS:   10242202  HIT:    4608469  MISS:    5633733
L2C RFO       ACCESS:    3741911  HIT:    2041779  MISS:    1700132
L2C PREFETCH  ACCESS:          0  HIT:          0  MISS:          0
L2C WRITEBACK ACCESS:    5744093  HIT:    5737620  MISS:       6473
L2C PREFETCH  REQUESTED:          0  ISSUED:          0  USEFUL:          0  USELESS:          0
L2C AVERAGE MISS LATENCY: 236.6 cycles
LLC TOTAL     ACCESS:   10647256  HIT:    2548958  MISS:    8098298
LLC LOAD      ACCESS:    5633654  HIT:     959826  MISS:    4673828
LLC RFO       ACCESS:    1700107  HIT:     426723  MISS:    1273384
LLC PREFETCH  ACCESS:          0  HIT:          0  MISS:          0
LLC WRITEBACK ACCESS:    3313495  HIT:    1162409  MISS:    2151086
LLC PREFETCH  REQUESTED:          0  ISSUED:          0  USEFUL:          0  USELESS:          0
LLC AVERAGE MISS LATENCY: 177.662 cycles
Major fault: 0 Minor fault: 19417
==============================
Perceptron RRIP Stats:
   Num Updates:          293829
   Num Primary Trains:   4853
   Num Secondary Trains: 5369
==============================
primary_perceptron #0: 1 -3 7 -1 -3 1 -3 3 3 -1 3 -5 -3 1 -1 -17 
secondary_perceptron #0: -1 -5 11 1 -5 1 -5 7 3 3 5 -5 -1 5 -1 -1 1 5 1 1 -25 


DRAM Statistics
 CHANNEL 0
 RQ ROW_BUFFER_HIT:    1159606  ROW_BUFFER_MISS:    4787359
 DBUS_CONGESTED:    2855319
 WQ ROW_BUFFER_HIT:    1406261  ROW_BUFFER_MISS:    1232709  FULL:     257857

 AVG_CONGESTED_CYCLE: 6

CPU 0 Branch Prediction Accuracy: 97.1042% MPKI: 2.81547 Average ROB Occupancy at Mispredict: 111.639

Branch types
NOT_BRANCH: 902775037 90.2775%
BRANCH_DIRECT_JUMP: 4806588 0.480659%
BRANCH_INDIRECT: 59 5.9e-06%
BRANCH_CONDITIONAL: 81914089 8.19141%
BRANCH_DIRECT_CALL: 5252089 0.525209%
BRANCH_INDIRECT_CALL: 0 0%
BRANCH_RETURN: 5252094 0.525209%
BRANCH_OTHER: 0 0%

