
*** ChampSim Multicore Out-of-Order Simulator ***

Warmup Instructions: 100000000
Simulation Instructions: 1000000000
Number of CPUs: 1
LLC sets: 2048
LLC ways: 16
Off-chip DRAM Size: 4096 MB Channels: 1 Width: 64-bit Data Rate: 3200 MT/s

CPU 0 runs /scratch/user/kevin.weston/dpc3-traces/621.champsimtrace.xz
CPU 0 Bimodal branch predictor
Initialize DRRIP state
Assign rand_sets[0]: 454  LLC: 2048
rand_sets[0]: 454
Assign rand_sets[1]: 1662  LLC: 2048
rand_sets[1]: 1662
Assign rand_sets[2]: 1921  LLC: 2048
rand_sets[2]: 1921
Assign rand_sets[3]: 1131  LLC: 2048
rand_sets[3]: 1131
Assign rand_sets[4]: 331  LLC: 2048
rand_sets[4]: 331
Assign rand_sets[5]: 1531  LLC: 2048
rand_sets[5]: 1531
Assign rand_sets[6]: 482  LLC: 2048
rand_sets[6]: 482
Assign rand_sets[7]: 1275  LLC: 2048
rand_sets[7]: 1275
Assign rand_sets[8]: 1876  LLC: 2048
rand_sets[8]: 1876
Assign rand_sets[9]: 2038  LLC: 2048
rand_sets[9]: 2038
Assign rand_sets[10]: 701  LLC: 2048
rand_sets[10]: 701
Assign rand_sets[11]: 479  LLC: 2048
rand_sets[11]: 479
Assign rand_sets[12]: 892  LLC: 2048
rand_sets[12]: 892
Assign rand_sets[13]: 1820  LLC: 2048
rand_sets[13]: 1820
Assign rand_sets[14]: 1505  LLC: 2048
rand_sets[14]: 1505
Assign rand_sets[15]: 1159  LLC: 2048
rand_sets[15]: 1159
Assign rand_sets[16]: 513  LLC: 2048
rand_sets[16]: 513
Assign rand_sets[17]: 703  LLC: 2048
rand_sets[17]: 703
Assign rand_sets[18]: 561  LLC: 2048
rand_sets[18]: 561
Assign rand_sets[19]: 990  LLC: 2048
rand_sets[19]: 990
Assign rand_sets[20]: 342  LLC: 2048
rand_sets[20]: 342
Assign rand_sets[21]: 882  LLC: 2048
rand_sets[21]: 882
Assign rand_sets[22]: 15  LLC: 2048
rand_sets[22]: 15
Assign rand_sets[23]: 71  LLC: 2048
rand_sets[23]: 71
Assign rand_sets[24]: 1127  LLC: 2048
rand_sets[24]: 1127
Assign rand_sets[25]: 1382  LLC: 2048
rand_sets[25]: 1382
Assign rand_sets[26]: 647  LLC: 2048
rand_sets[26]: 647
Assign rand_sets[27]: 857  LLC: 2048
rand_sets[27]: 857
Assign rand_sets[28]: 1450  LLC: 2048
rand_sets[28]: 1450
Assign rand_sets[29]: 1160  LLC: 2048
rand_sets[29]: 1160
Assign rand_sets[30]: 1852  LLC: 2048
rand_sets[30]: 1852
Assign rand_sets[31]: 1881  LLC: 2048
rand_sets[31]: 1881
Assign rand_sets[32]: 1770  LLC: 2048
rand_sets[32]: 1770
Assign rand_sets[33]: 1622  LLC: 2048
rand_sets[33]: 1622
Assign rand_sets[34]: 275  LLC: 2048
rand_sets[34]: 275
Assign rand_sets[35]: 635  LLC: 2048
rand_sets[35]: 635
Assign rand_sets[36]: 466  LLC: 2048
rand_sets[36]: 466
Assign rand_sets[37]: 1413  LLC: 2048
rand_sets[37]: 1413
Assign rand_sets[38]: 417  LLC: 2048
rand_sets[38]: 417
Assign rand_sets[39]: 472  LLC: 2048
rand_sets[39]: 472
Assign rand_sets[40]: 1340  LLC: 2048
rand_sets[40]: 1340
Assign rand_sets[41]: 852  LLC: 2048
rand_sets[41]: 852
Assign rand_sets[42]: 1365  LLC: 2048
rand_sets[42]: 1365
Assign rand_sets[43]: 47  LLC: 2048
rand_sets[43]: 47
Assign rand_sets[44]: 823  LLC: 2048
rand_sets[44]: 823
Assign rand_sets[45]: 686  LLC: 2048
rand_sets[45]: 686
Assign rand_sets[46]: 1637  LLC: 2048
rand_sets[46]: 1637
Assign rand_sets[47]: 1115  LLC: 2048
rand_sets[47]: 1115
Assign rand_sets[48]: 986  LLC: 2048
rand_sets[48]: 986
Assign rand_sets[49]: 258  LLC: 2048
rand_sets[49]: 258
Assign rand_sets[50]: 633  LLC: 2048
rand_sets[50]: 633
Assign rand_sets[51]: 920  LLC: 2048
rand_sets[51]: 920
Assign rand_sets[52]: 204  LLC: 2048
rand_sets[52]: 204
Assign rand_sets[53]: 227  LLC: 2048
rand_sets[53]: 227
Assign rand_sets[54]: 1818  LLC: 2048
rand_sets[54]: 1818
Assign rand_sets[55]: 886  LLC: 2048
rand_sets[55]: 886
Assign rand_sets[56]: 1422  LLC: 2048
rand_sets[56]: 1422
Assign rand_sets[57]: 607  LLC: 2048
rand_sets[57]: 607
Assign rand_sets[58]: 217  LLC: 2048
rand_sets[58]: 217
Assign rand_sets[59]: 1945  LLC: 2048
rand_sets[59]: 1945
Assign rand_sets[60]: 143  LLC: 2048
rand_sets[60]: 143
Assign rand_sets[61]: 1311  LLC: 2048
rand_sets[61]: 1311
Assign rand_sets[62]: 319  LLC: 2048
rand_sets[62]: 319
Assign rand_sets[63]: 1846  LLC: 2048
rand_sets[63]: 1846
Heartbeat CPU 0 instructions: 10000000 cycles: 4328694 heartbeat IPC: 2.31017 cumulative IPC: 2.31017 (Simulation time: 0 hr 0 min 20 sec) 
Heartbeat CPU 0 instructions: 20000002 cycles: 8673385 heartbeat IPC: 2.30166 cumulative IPC: 2.30591 (Simulation time: 0 hr 0 min 40 sec) 
Heartbeat CPU 0 instructions: 30000000 cycles: 13029447 heartbeat IPC: 2.29565 cumulative IPC: 2.30248 (Simulation time: 0 hr 1 min 0 sec) 
Heartbeat CPU 0 instructions: 40000002 cycles: 17381326 heartbeat IPC: 2.29786 cumulative IPC: 2.30132 (Simulation time: 0 hr 1 min 20 sec) 
Heartbeat CPU 0 instructions: 50000002 cycles: 21731060 heartbeat IPC: 2.29899 cumulative IPC: 2.30085 (Simulation time: 0 hr 1 min 41 sec) 
Heartbeat CPU 0 instructions: 60000003 cycles: 26077316 heartbeat IPC: 2.30083 cumulative IPC: 2.30085 (Simulation time: 0 hr 2 min 1 sec) 
Heartbeat CPU 0 instructions: 70000000 cycles: 30419786 heartbeat IPC: 2.30284 cumulative IPC: 2.30113 (Simulation time: 0 hr 2 min 21 sec) 
Heartbeat CPU 0 instructions: 80000000 cycles: 34749579 heartbeat IPC: 2.30958 cumulative IPC: 2.30219 (Simulation time: 0 hr 2 min 42 sec) 
Heartbeat CPU 0 instructions: 90000000 cycles: 39094724 heartbeat IPC: 2.30142 cumulative IPC: 2.3021 (Simulation time: 0 hr 3 min 2 sec) 
Heartbeat CPU 0 instructions: 100000001 cycles: 43429708 heartbeat IPC: 2.30681 cumulative IPC: 2.30257 (Simulation time: 0 hr 3 min 22 sec) 

Warmup complete CPU 0 instructions: 100000001 cycles: 43429708 (Simulation time: 0 hr 3 min 22 sec) 

Heartbeat CPU 0 instructions: 110000000 cycles: 51879181 heartbeat IPC: 1.18351 cumulative IPC: 1.18351 (Simulation time: 0 hr 3 min 39 sec) 
Heartbeat CPU 0 instructions: 120000001 cycles: 60267772 heartbeat IPC: 1.1921 cumulative IPC: 1.18779 (Simulation time: 0 hr 3 min 55 sec) 
Heartbeat CPU 0 instructions: 130000000 cycles: 68699884 heartbeat IPC: 1.18594 cumulative IPC: 1.18717 (Simulation time: 0 hr 4 min 11 sec) 
Heartbeat CPU 0 instructions: 140000001 cycles: 77111675 heartbeat IPC: 1.18881 cumulative IPC: 1.18758 (Simulation time: 0 hr 4 min 28 sec) 
Heartbeat CPU 0 instructions: 150000000 cycles: 85403513 heartbeat IPC: 1.20601 cumulative IPC: 1.19122 (Simulation time: 0 hr 4 min 44 sec) 
Heartbeat CPU 0 instructions: 160000002 cycles: 93722160 heartbeat IPC: 1.20212 cumulative IPC: 1.19302 (Simulation time: 0 hr 5 min 0 sec) 
Heartbeat CPU 0 instructions: 170000001 cycles: 102013062 heartbeat IPC: 1.20614 cumulative IPC: 1.19488 (Simulation time: 0 hr 5 min 16 sec) 
Heartbeat CPU 0 instructions: 180000000 cycles: 110325091 heartbeat IPC: 1.20308 cumulative IPC: 1.1959 (Simulation time: 0 hr 5 min 32 sec) 
Heartbeat CPU 0 instructions: 190000003 cycles: 118675138 heartbeat IPC: 1.1976 cumulative IPC: 1.19609 (Simulation time: 0 hr 5 min 48 sec) 
Heartbeat CPU 0 instructions: 200000000 cycles: 127012278 heartbeat IPC: 1.19945 cumulative IPC: 1.19642 (Simulation time: 0 hr 6 min 4 sec) 
Heartbeat CPU 0 instructions: 210000001 cycles: 135253985 heartbeat IPC: 1.21334 cumulative IPC: 1.19794 (Simulation time: 0 hr 6 min 20 sec) 
Heartbeat CPU 0 instructions: 220000000 cycles: 143454605 heartbeat IPC: 1.21942 cumulative IPC: 1.1997 (Simulation time: 0 hr 6 min 35 sec) 
Heartbeat CPU 0 instructions: 230000001 cycles: 151700744 heartbeat IPC: 1.21269 cumulative IPC: 1.20069 (Simulation time: 0 hr 6 min 51 sec) 
Heartbeat CPU 0 instructions: 240000001 cycles: 160003865 heartbeat IPC: 1.20437 cumulative IPC: 1.20095 (Simulation time: 0 hr 7 min 7 sec) 
Heartbeat CPU 0 instructions: 250000001 cycles: 168328812 heartbeat IPC: 1.20121 cumulative IPC: 1.20097 (Simulation time: 0 hr 7 min 23 sec) 
Heartbeat CPU 0 instructions: 260000000 cycles: 176651229 heartbeat IPC: 1.20157 cumulative IPC: 1.20101 (Simulation time: 0 hr 7 min 39 sec) 
Heartbeat CPU 0 instructions: 270000002 cycles: 184976263 heartbeat IPC: 1.2012 cumulative IPC: 1.20102 (Simulation time: 0 hr 7 min 55 sec) 
Heartbeat CPU 0 instructions: 280000002 cycles: 193272153 heartbeat IPC: 1.20542 cumulative IPC: 1.20126 (Simulation time: 0 hr 8 min 11 sec) 
Heartbeat CPU 0 instructions: 290000002 cycles: 201609137 heartbeat IPC: 1.19947 cumulative IPC: 1.20117 (Simulation time: 0 hr 8 min 27 sec) 
Heartbeat CPU 0 instructions: 300000002 cycles: 209915833 heartbeat IPC: 1.20385 cumulative IPC: 1.2013 (Simulation time: 0 hr 8 min 43 sec) 
Heartbeat CPU 0 instructions: 310000002 cycles: 218164469 heartbeat IPC: 1.21232 cumulative IPC: 1.20182 (Simulation time: 0 hr 8 min 59 sec) 
Heartbeat CPU 0 instructions: 320000000 cycles: 226537842 heartbeat IPC: 1.19426 cumulative IPC: 1.20148 (Simulation time: 0 hr 9 min 15 sec) 
Heartbeat CPU 0 instructions: 330000000 cycles: 234867207 heartbeat IPC: 1.20057 cumulative IPC: 1.20144 (Simulation time: 0 hr 9 min 31 sec) 
Heartbeat CPU 0 instructions: 340000000 cycles: 243665077 heartbeat IPC: 1.13664 cumulative IPC: 1.19859 (Simulation time: 0 hr 9 min 51 sec) 
Heartbeat CPU 0 instructions: 350000000 cycles: 252400182 heartbeat IPC: 1.14481 cumulative IPC: 1.19634 (Simulation time: 0 hr 10 min 10 sec) 
Heartbeat CPU 0 instructions: 360000001 cycles: 261044760 heartbeat IPC: 1.15679 cumulative IPC: 1.19477 (Simulation time: 0 hr 10 min 29 sec) 
Heartbeat CPU 0 instructions: 370000000 cycles: 269633968 heartbeat IPC: 1.16425 cumulative IPC: 1.19361 (Simulation time: 0 hr 10 min 48 sec) 
Heartbeat CPU 0 instructions: 380000003 cycles: 278207098 heartbeat IPC: 1.16644 cumulative IPC: 1.19262 (Simulation time: 0 hr 11 min 6 sec) 
Heartbeat CPU 0 instructions: 390000000 cycles: 288609532 heartbeat IPC: 0.961313 cumulative IPC: 1.18281 (Simulation time: 0 hr 11 min 29 sec) 
Heartbeat CPU 0 instructions: 400000002 cycles: 296204104 heartbeat IPC: 1.31673 cumulative IPC: 1.18683 (Simulation time: 0 hr 11 min 47 sec) 
Heartbeat CPU 0 instructions: 410000001 cycles: 303941634 heartbeat IPC: 1.2924 cumulative IPC: 1.18996 (Simulation time: 0 hr 12 min 6 sec) 
Heartbeat CPU 0 instructions: 420000000 cycles: 311671537 heartbeat IPC: 1.29368 cumulative IPC: 1.19295 (Simulation time: 0 hr 12 min 24 sec) 
Heartbeat CPU 0 instructions: 430000002 cycles: 319448430 heartbeat IPC: 1.28586 cumulative IPC: 1.19557 (Simulation time: 0 hr 12 min 42 sec) 
Heartbeat CPU 0 instructions: 440000000 cycles: 327216877 heartbeat IPC: 1.28726 cumulative IPC: 1.19808 (Simulation time: 0 hr 13 min 0 sec) 
Heartbeat CPU 0 instructions: 450000000 cycles: 335086977 heartbeat IPC: 1.27063 cumulative IPC: 1.20004 (Simulation time: 0 hr 13 min 17 sec) 
Heartbeat CPU 0 instructions: 460000000 cycles: 342797406 heartbeat IPC: 1.29694 cumulative IPC: 1.20253 (Simulation time: 0 hr 13 min 36 sec) 
Heartbeat CPU 0 instructions: 470000003 cycles: 350399778 heartbeat IPC: 1.31538 cumulative IPC: 1.20533 (Simulation time: 0 hr 13 min 54 sec) 
Heartbeat CPU 0 instructions: 480000000 cycles: 358161120 heartbeat IPC: 1.28844 cumulative IPC: 1.20738 (Simulation time: 0 hr 14 min 12 sec) 
Heartbeat CPU 0 instructions: 490000000 cycles: 367674537 heartbeat IPC: 1.05115 cumulative IPC: 1.20279 (Simulation time: 0 hr 14 min 33 sec) 
Heartbeat CPU 0 instructions: 500000001 cycles: 377646492 heartbeat IPC: 1.00281 cumulative IPC: 1.19683 (Simulation time: 0 hr 14 min 58 sec) 
Heartbeat CPU 0 instructions: 510000001 cycles: 387529731 heartbeat IPC: 1.01181 cumulative IPC: 1.19151 (Simulation time: 0 hr 15 min 23 sec) 
Heartbeat CPU 0 instructions: 520000000 cycles: 397441865 heartbeat IPC: 1.00886 cumulative IPC: 1.1864 (Simulation time: 0 hr 15 min 48 sec) 
Heartbeat CPU 0 instructions: 530000002 cycles: 407251731 heartbeat IPC: 1.01938 cumulative IPC: 1.1819 (Simulation time: 0 hr 16 min 13 sec) 
Heartbeat CPU 0 instructions: 540000001 cycles: 417033172 heartbeat IPC: 1.02234 cumulative IPC: 1.17772 (Simulation time: 0 hr 16 min 38 sec) 
Heartbeat CPU 0 instructions: 550000000 cycles: 426810855 heartbeat IPC: 1.02274 cumulative IPC: 1.17377 (Simulation time: 0 hr 17 min 2 sec) 
Heartbeat CPU 0 instructions: 560000000 cycles: 436665742 heartbeat IPC: 1.01472 cumulative IPC: 1.16978 (Simulation time: 0 hr 17 min 27 sec) 
Heartbeat CPU 0 instructions: 570000003 cycles: 446539153 heartbeat IPC: 1.01282 cumulative IPC: 1.16594 (Simulation time: 0 hr 17 min 52 sec) 
Heartbeat CPU 0 instructions: 580000000 cycles: 456401520 heartbeat IPC: 1.01396 cumulative IPC: 1.16231 (Simulation time: 0 hr 18 min 17 sec) 
Heartbeat CPU 0 instructions: 590000000 cycles: 466194317 heartbeat IPC: 1.02116 cumulative IPC: 1.15904 (Simulation time: 0 hr 18 min 42 sec) 
Heartbeat CPU 0 instructions: 600000001 cycles: 475934363 heartbeat IPC: 1.02669 cumulative IPC: 1.15606 (Simulation time: 0 hr 19 min 6 sec) 
Heartbeat CPU 0 instructions: 610000000 cycles: 485798598 heartbeat IPC: 1.01376 cumulative IPC: 1.15288 (Simulation time: 0 hr 19 min 32 sec) 
Heartbeat CPU 0 instructions: 620000003 cycles: 500846531 heartbeat IPC: 0.664543 cumulative IPC: 1.13682 (Simulation time: 0 hr 19 min 56 sec) 
Heartbeat CPU 0 instructions: 630000001 cycles: 516192700 heartbeat IPC: 0.651628 cumulative IPC: 1.12107 (Simulation time: 0 hr 20 min 20 sec) 
Heartbeat CPU 0 instructions: 640000001 cycles: 532115950 heartbeat IPC: 0.628012 cumulative IPC: 1.105 (Simulation time: 0 hr 20 min 46 sec) 
Heartbeat CPU 0 instructions: 650000001 cycles: 548960941 heartbeat IPC: 0.593648 cumulative IPC: 1.08796 (Simulation time: 0 hr 21 min 13 sec) 
Heartbeat CPU 0 instructions: 660000000 cycles: 561870843 heartbeat IPC: 0.774599 cumulative IPC: 1.08016 (Simulation time: 0 hr 21 min 40 sec) 
Heartbeat CPU 0 instructions: 670000003 cycles: 574636779 heartbeat IPC: 0.783335 cumulative IPC: 1.07303 (Simulation time: 0 hr 22 min 8 sec) 
Heartbeat CPU 0 instructions: 680000003 cycles: 596189287 heartbeat IPC: 0.463983 cumulative IPC: 1.04928 (Simulation time: 0 hr 22 min 40 sec) 
Heartbeat CPU 0 instructions: 690000000 cycles: 606331611 heartbeat IPC: 0.985967 cumulative IPC: 1.04814 (Simulation time: 0 hr 23 min 6 sec) 
Heartbeat CPU 0 instructions: 700000000 cycles: 615878735 heartbeat IPC: 1.04744 cumulative IPC: 1.04813 (Simulation time: 0 hr 23 min 31 sec) 
Heartbeat CPU 0 instructions: 710000002 cycles: 625919605 heartbeat IPC: 0.99593 cumulative IPC: 1.04723 (Simulation time: 0 hr 23 min 56 sec) 
Heartbeat CPU 0 instructions: 720000000 cycles: 635256308 heartbeat IPC: 1.07104 cumulative IPC: 1.0476 (Simulation time: 0 hr 24 min 20 sec) 
Heartbeat CPU 0 instructions: 730000003 cycles: 644821432 heartbeat IPC: 1.04547 cumulative IPC: 1.04757 (Simulation time: 0 hr 24 min 45 sec) 
Heartbeat CPU 0 instructions: 740000001 cycles: 657850783 heartbeat IPC: 0.767498 cumulative IPC: 1.04163 (Simulation time: 0 hr 25 min 11 sec) 
Heartbeat CPU 0 instructions: 750000003 cycles: 678524170 heartbeat IPC: 0.483714 cumulative IPC: 1.02347 (Simulation time: 0 hr 25 min 45 sec) 
Heartbeat CPU 0 instructions: 760000001 cycles: 694019670 heartbeat IPC: 0.645349 cumulative IPC: 1.01446 (Simulation time: 0 hr 26 min 15 sec) 
Heartbeat CPU 0 instructions: 770000000 cycles: 715746206 heartbeat IPC: 0.460267 cumulative IPC: 0.996554 (Simulation time: 0 hr 26 min 47 sec) 
Heartbeat CPU 0 instructions: 780000000 cycles: 730519060 heartbeat IPC: 0.676917 cumulative IPC: 0.989682 (Simulation time: 0 hr 27 min 16 sec) 
Heartbeat CPU 0 instructions: 790000003 cycles: 744309281 heartbeat IPC: 0.725152 cumulative IPC: 0.984477 (Simulation time: 0 hr 27 min 45 sec) 
Heartbeat CPU 0 instructions: 800000003 cycles: 760794078 heartbeat IPC: 0.60662 cumulative IPC: 0.975794 (Simulation time: 0 hr 28 min 13 sec) 
Heartbeat CPU 0 instructions: 810000000 cycles: 783346100 heartbeat IPC: 0.443419 cumulative IPC: 0.959568 (Simulation time: 0 hr 28 min 46 sec) 
Heartbeat CPU 0 instructions: 820000001 cycles: 813270477 heartbeat IPC: 0.334176 cumulative IPC: 0.935258 (Simulation time: 0 hr 29 min 23 sec) 
Heartbeat CPU 0 instructions: 830000003 cycles: 829691738 heartbeat IPC: 0.608967 cumulative IPC: 0.928444 (Simulation time: 0 hr 29 min 50 sec) 
Heartbeat CPU 0 instructions: 840000001 cycles: 847777295 heartbeat IPC: 0.552927 cumulative IPC: 0.92 (Simulation time: 0 hr 30 min 20 sec) 
Heartbeat CPU 0 instructions: 850000001 cycles: 874577010 heartbeat IPC: 0.373138 cumulative IPC: 0.902367 (Simulation time: 0 hr 30 min 57 sec) 
Heartbeat CPU 0 instructions: 860000003 cycles: 890786053 heartbeat IPC: 0.61694 cumulative IPC: 0.896907 (Simulation time: 0 hr 31 min 27 sec) 
Heartbeat CPU 0 instructions: 870000003 cycles: 901572433 heartbeat IPC: 0.927095 cumulative IPC: 0.897287 (Simulation time: 0 hr 31 min 52 sec) 
Heartbeat CPU 0 instructions: 880000000 cycles: 914560735 heartbeat IPC: 0.769923 cumulative IPC: 0.895388 (Simulation time: 0 hr 32 min 19 sec) 
Heartbeat CPU 0 instructions: 890000002 cycles: 924398059 heartbeat IPC: 1.01654 cumulative IPC: 0.89674 (Simulation time: 0 hr 32 min 44 sec) 
Heartbeat CPU 0 instructions: 900000002 cycles: 936915143 heartbeat IPC: 0.798908 cumulative IPC: 0.89537 (Simulation time: 0 hr 33 min 11 sec) 
Heartbeat CPU 0 instructions: 910000002 cycles: 946239082 heartbeat IPC: 1.07251 cumulative IPC: 0.897199 (Simulation time: 0 hr 33 min 35 sec) 
Heartbeat CPU 0 instructions: 920000002 cycles: 958907313 heartbeat IPC: 0.789376 cumulative IPC: 0.895707 (Simulation time: 0 hr 34 min 2 sec) 
Heartbeat CPU 0 instructions: 930000003 cycles: 967988366 heartbeat IPC: 1.10119 cumulative IPC: 0.897726 (Simulation time: 0 hr 34 min 27 sec) 
Heartbeat CPU 0 instructions: 940000003 cycles: 981072891 heartbeat IPC: 0.764262 cumulative IPC: 0.895863 (Simulation time: 0 hr 34 min 54 sec) 
Heartbeat CPU 0 instructions: 950000001 cycles: 989987848 heartbeat IPC: 1.12171 cumulative IPC: 0.89799 (Simulation time: 0 hr 35 min 18 sec) 
Heartbeat CPU 0 instructions: 960000001 cycles: 1003406447 heartbeat IPC: 0.745234 cumulative IPC: 0.895855 (Simulation time: 0 hr 35 min 46 sec) 
Heartbeat CPU 0 instructions: 970000000 cycles: 1011038935 heartbeat IPC: 1.31019 cumulative IPC: 0.899123 (Simulation time: 0 hr 36 min 8 sec) 
Heartbeat CPU 0 instructions: 980000003 cycles: 1018685014 heartbeat IPC: 1.30786 cumulative IPC: 0.902328 (Simulation time: 0 hr 36 min 30 sec) 
Heartbeat CPU 0 instructions: 990000000 cycles: 1026358410 heartbeat IPC: 1.3032 cumulative IPC: 0.905457 (Simulation time: 0 hr 36 min 52 sec) 
Heartbeat CPU 0 instructions: 1000000000 cycles: 1040470701 heartbeat IPC: 0.708602 cumulative IPC: 0.902671 (Simulation time: 0 hr 37 min 17 sec) 
Heartbeat CPU 0 instructions: 1010000002 cycles: 1061564408 heartbeat IPC: 0.474075 cumulative IPC: 0.893791 (Simulation time: 0 hr 37 min 46 sec) 
Heartbeat CPU 0 instructions: 1020000002 cycles: 1070512167 heartbeat IPC: 1.1176 cumulative IPC: 0.895741 (Simulation time: 0 hr 38 min 12 sec) 
Heartbeat CPU 0 instructions: 1030000000 cycles: 1080978044 heartbeat IPC: 0.955486 cumulative IPC: 0.896344 (Simulation time: 0 hr 38 min 38 sec) 
Heartbeat CPU 0 instructions: 1040000001 cycles: 1089191769 heartbeat IPC: 1.21747 cumulative IPC: 0.898866 (Simulation time: 0 hr 39 min 3 sec) 
Heartbeat CPU 0 instructions: 1050000001 cycles: 1097836699 heartbeat IPC: 1.15675 cumulative IPC: 0.90098 (Simulation time: 0 hr 39 min 27 sec) 
Heartbeat CPU 0 instructions: 1060000001 cycles: 1107230794 heartbeat IPC: 1.0645 cumulative IPC: 0.902424 (Simulation time: 0 hr 39 min 53 sec) 
Heartbeat CPU 0 instructions: 1070000003 cycles: 1115916137 heartbeat IPC: 1.15137 cumulative IPC: 0.90444 (Simulation time: 0 hr 40 min 17 sec) 
Heartbeat CPU 0 instructions: 1080000002 cycles: 1133516887 heartbeat IPC: 0.568158 cumulative IPC: 0.899011 (Simulation time: 0 hr 40 min 48 sec) 
Heartbeat CPU 0 instructions: 1090000002 cycles: 1153238612 heartbeat IPC: 0.507055 cumulative IPC: 0.892045 (Simulation time: 0 hr 41 min 22 sec) 
Heartbeat CPU 0 instructions: 1100000000 cycles: 1169915547 heartbeat IPC: 0.59963 cumulative IPC: 0.887716 (Simulation time: 0 hr 41 min 52 sec) 
Finished CPU 0 instructions: 1000000000 cycles: 1126486083 cumulative IPC: 0.887716 (Simulation time: 0 hr 41 min 52 sec) 

ChampSim completed all CPUs

Region of Interest Statistics

CPU 0 cumulative IPC: 0.887716 instructions: 1000000000 cycles: 1126486083
L1D TOTAL     ACCESS:  245439463  HIT:  232136546  MISS:   13302917
L1D LOAD      ACCESS:  185749069  HIT:  176209249  MISS:    9539820
L1D RFO       ACCESS:   59690394  HIT:   55927297  MISS:    3763097
L1D PREFETCH  ACCESS:          0  HIT:          0  MISS:          0
L1D WRITEBACK ACCESS:          0  HIT:          0  MISS:          0
L1D PREFETCH  REQUESTED:          0  ISSUED:          0  USEFUL:          0  USELESS:          0
L1D AVERAGE MISS LATENCY: 136.788 cycles
L1I TOTAL     ACCESS:  171494424  HIT:  170791682  MISS:     702742
L1I LOAD      ACCESS:  171494424  HIT:  170791682  MISS:     702742
L1I RFO       ACCESS:          0  HIT:          0  MISS:          0
L1I PREFETCH  ACCESS:          0  HIT:          0  MISS:          0
L1I WRITEBACK ACCESS:          0  HIT:          0  MISS:          0
L1I PREFETCH  REQUESTED:          0  ISSUED:          0  USEFUL:          0  USELESS:          0
L1I AVERAGE MISS LATENCY: 21.6159 cycles
L2C TOTAL     ACCESS:   19725404  HIT:   12372601  MISS:    7352803
L2C LOAD      ACCESS:   10241647  HIT:    4594896  MISS:    5646751
L2C RFO       ACCESS:    3740743  HIT:    2040946  MISS:    1699797
L2C PREFETCH  ACCESS:          0  HIT:          0  MISS:          0
L2C WRITEBACK ACCESS:    5743014  HIT:    5736759  MISS:       6255
L2C PREFETCH  REQUESTED:          0  ISSUED:          0  USEFUL:          0  USELESS:          0
L2C AVERAGE MISS LATENCY: 225.603 cycles
LLC TOTAL     ACCESS:   10660401  HIT:    4192349  MISS:    6468052
LLC LOAD      ACCESS:    5646372  HIT:    1378592  MISS:    4267780
LLC RFO       ACCESS:    1699789  HIT:     453959  MISS:    1245830
LLC PREFETCH  ACCESS:          0  HIT:          0  MISS:          0
LLC WRITEBACK ACCESS:    3314240  HIT:    2359798  MISS:     954442
LLC PREFETCH  REQUESTED:          0  ISSUED:          0  USEFUL:          0  USELESS:          0
LLC AVERAGE MISS LATENCY: 210.309 cycles
Major fault: 0 Minor fault: 19417

DRAM Statistics
 CHANNEL 0
 RQ ROW_BUFFER_HIT:    1084582  ROW_BUFFER_MISS:    4428258
 DBUS_CONGESTED:    2574705
 WQ ROW_BUFFER_HIT:     984024  ROW_BUFFER_MISS:    1313397  FULL:     192642

 AVG_CONGESTED_CYCLE: 6

CPU 0 Branch Prediction Accuracy: 97.1042% MPKI: 2.81547 Average ROB Occupancy at Mispredict: 108.967

Branch types
NOT_BRANCH: 902775037 90.2775%
BRANCH_DIRECT_JUMP: 4806588 0.480659%
BRANCH_INDIRECT: 59 5.9e-06%
BRANCH_CONDITIONAL: 81914089 8.19141%
BRANCH_DIRECT_CALL: 5252089 0.525209%
BRANCH_INDIRECT_CALL: 0 0%
BRANCH_RETURN: 5252094 0.525209%
BRANCH_OTHER: 0 0%

