
*** ChampSim Multicore Out-of-Order Simulator ***

Warmup Instructions: 100000000
Simulation Instructions: 1000000000
Number of CPUs: 1
LLC sets: 2048
LLC ways: 16
Off-chip DRAM Size: 4096 MB Channels: 1 Width: 64-bit Data Rate: 3200 MT/s

CPU 0 runs /scratch/user/kevin.weston/dpc3-traces/621.champsimtrace.xz
CPU 0 Bimodal branch predictor
Initialize SRRIP state
Heartbeat CPU 0 instructions: 10000000 cycles: 4328694 heartbeat IPC: 2.31017 cumulative IPC: 2.31017 (Simulation time: 0 hr 0 min 20 sec) 
Heartbeat CPU 0 instructions: 20000002 cycles: 8673385 heartbeat IPC: 2.30166 cumulative IPC: 2.30591 (Simulation time: 0 hr 0 min 41 sec) 
Heartbeat CPU 0 instructions: 30000000 cycles: 13029447 heartbeat IPC: 2.29565 cumulative IPC: 2.30248 (Simulation time: 0 hr 1 min 1 sec) 
Heartbeat CPU 0 instructions: 40000002 cycles: 17381326 heartbeat IPC: 2.29786 cumulative IPC: 2.30132 (Simulation time: 0 hr 1 min 21 sec) 
Heartbeat CPU 0 instructions: 50000002 cycles: 21731060 heartbeat IPC: 2.29899 cumulative IPC: 2.30085 (Simulation time: 0 hr 1 min 41 sec) 
Heartbeat CPU 0 instructions: 60000003 cycles: 26077316 heartbeat IPC: 2.30083 cumulative IPC: 2.30085 (Simulation time: 0 hr 2 min 2 sec) 
Heartbeat CPU 0 instructions: 70000000 cycles: 30419787 heartbeat IPC: 2.30284 cumulative IPC: 2.30113 (Simulation time: 0 hr 2 min 22 sec) 
Heartbeat CPU 0 instructions: 80000000 cycles: 34749580 heartbeat IPC: 2.30958 cumulative IPC: 2.30219 (Simulation time: 0 hr 2 min 42 sec) 
Heartbeat CPU 0 instructions: 90000000 cycles: 39094725 heartbeat IPC: 2.30142 cumulative IPC: 2.3021 (Simulation time: 0 hr 3 min 2 sec) 
Heartbeat CPU 0 instructions: 100000001 cycles: 43429709 heartbeat IPC: 2.30681 cumulative IPC: 2.30257 (Simulation time: 0 hr 3 min 22 sec) 

Warmup complete CPU 0 instructions: 100000001 cycles: 43429709 (Simulation time: 0 hr 3 min 22 sec) 

Heartbeat CPU 0 instructions: 110000000 cycles: 51879182 heartbeat IPC: 1.18351 cumulative IPC: 1.18351 (Simulation time: 0 hr 3 min 39 sec) 
Heartbeat CPU 0 instructions: 120000001 cycles: 60267567 heartbeat IPC: 1.19212 cumulative IPC: 1.1878 (Simulation time: 0 hr 3 min 55 sec) 
Heartbeat CPU 0 instructions: 130000000 cycles: 68699336 heartbeat IPC: 1.18599 cumulative IPC: 1.1872 (Simulation time: 0 hr 4 min 12 sec) 
Heartbeat CPU 0 instructions: 140000001 cycles: 77110734 heartbeat IPC: 1.18886 cumulative IPC: 1.18761 (Simulation time: 0 hr 4 min 28 sec) 
Heartbeat CPU 0 instructions: 150000000 cycles: 85402543 heartbeat IPC: 1.20601 cumulative IPC: 1.19125 (Simulation time: 0 hr 4 min 44 sec) 
Heartbeat CPU 0 instructions: 160000002 cycles: 93721269 heartbeat IPC: 1.20211 cumulative IPC: 1.19304 (Simulation time: 0 hr 5 min 0 sec) 
Heartbeat CPU 0 instructions: 170000001 cycles: 102012108 heartbeat IPC: 1.20615 cumulative IPC: 1.1949 (Simulation time: 0 hr 5 min 17 sec) 
Heartbeat CPU 0 instructions: 180000000 cycles: 110323937 heartbeat IPC: 1.2031 cumulative IPC: 1.19592 (Simulation time: 0 hr 5 min 33 sec) 
Heartbeat CPU 0 instructions: 190000003 cycles: 118673555 heartbeat IPC: 1.19766 cumulative IPC: 1.19611 (Simulation time: 0 hr 5 min 49 sec) 
Heartbeat CPU 0 instructions: 200000000 cycles: 127010812 heartbeat IPC: 1.19943 cumulative IPC: 1.19644 (Simulation time: 0 hr 6 min 5 sec) 
Heartbeat CPU 0 instructions: 210000001 cycles: 135252274 heartbeat IPC: 1.21338 cumulative IPC: 1.19796 (Simulation time: 0 hr 6 min 20 sec) 
Heartbeat CPU 0 instructions: 220000000 cycles: 143453094 heartbeat IPC: 1.21939 cumulative IPC: 1.19972 (Simulation time: 0 hr 6 min 36 sec) 
Heartbeat CPU 0 instructions: 230000001 cycles: 151699293 heartbeat IPC: 1.21268 cumulative IPC: 1.20071 (Simulation time: 0 hr 6 min 52 sec) 
Heartbeat CPU 0 instructions: 240000001 cycles: 160002903 heartbeat IPC: 1.2043 cumulative IPC: 1.20096 (Simulation time: 0 hr 7 min 8 sec) 
Heartbeat CPU 0 instructions: 250000001 cycles: 168328050 heartbeat IPC: 1.20118 cumulative IPC: 1.20098 (Simulation time: 0 hr 7 min 24 sec) 
Heartbeat CPU 0 instructions: 260000000 cycles: 176650539 heartbeat IPC: 1.20156 cumulative IPC: 1.20101 (Simulation time: 0 hr 7 min 40 sec) 
Heartbeat CPU 0 instructions: 270000002 cycles: 184975388 heartbeat IPC: 1.20122 cumulative IPC: 1.20103 (Simulation time: 0 hr 7 min 56 sec) 
Heartbeat CPU 0 instructions: 280000002 cycles: 193271478 heartbeat IPC: 1.20539 cumulative IPC: 1.20127 (Simulation time: 0 hr 8 min 12 sec) 
Heartbeat CPU 0 instructions: 290000002 cycles: 201608262 heartbeat IPC: 1.1995 cumulative IPC: 1.20117 (Simulation time: 0 hr 8 min 28 sec) 
Heartbeat CPU 0 instructions: 300000002 cycles: 209914468 heartbeat IPC: 1.20392 cumulative IPC: 1.20131 (Simulation time: 0 hr 8 min 44 sec) 
Heartbeat CPU 0 instructions: 310000002 cycles: 218162810 heartbeat IPC: 1.21236 cumulative IPC: 1.20183 (Simulation time: 0 hr 9 min 0 sec) 
Heartbeat CPU 0 instructions: 320000000 cycles: 226536092 heartbeat IPC: 1.19427 cumulative IPC: 1.20149 (Simulation time: 0 hr 9 min 16 sec) 
Heartbeat CPU 0 instructions: 330000000 cycles: 234866167 heartbeat IPC: 1.20047 cumulative IPC: 1.20144 (Simulation time: 0 hr 9 min 33 sec) 
Heartbeat CPU 0 instructions: 340000000 cycles: 243656889 heartbeat IPC: 1.13756 cumulative IPC: 1.19864 (Simulation time: 0 hr 9 min 54 sec) 
Heartbeat CPU 0 instructions: 350000000 cycles: 252392260 heartbeat IPC: 1.14477 cumulative IPC: 1.19639 (Simulation time: 0 hr 10 min 13 sec) 
Heartbeat CPU 0 instructions: 360000001 cycles: 261037779 heartbeat IPC: 1.15667 cumulative IPC: 1.19481 (Simulation time: 0 hr 10 min 32 sec) 
Heartbeat CPU 0 instructions: 370000000 cycles: 269630268 heartbeat IPC: 1.16381 cumulative IPC: 1.19363 (Simulation time: 0 hr 10 min 51 sec) 
Heartbeat CPU 0 instructions: 380000003 cycles: 278203918 heartbeat IPC: 1.16636 cumulative IPC: 1.19264 (Simulation time: 0 hr 11 min 10 sec) 
Heartbeat CPU 0 instructions: 390000000 cycles: 288665294 heartbeat IPC: 0.955897 cumulative IPC: 1.18254 (Simulation time: 0 hr 11 min 33 sec) 
Heartbeat CPU 0 instructions: 400000002 cycles: 296241851 heartbeat IPC: 1.31986 cumulative IPC: 1.18665 (Simulation time: 0 hr 11 min 52 sec) 
Heartbeat CPU 0 instructions: 410000001 cycles: 303927806 heartbeat IPC: 1.30107 cumulative IPC: 1.19003 (Simulation time: 0 hr 12 min 10 sec) 
Heartbeat CPU 0 instructions: 420000000 cycles: 311624502 heartbeat IPC: 1.29926 cumulative IPC: 1.19316 (Simulation time: 0 hr 12 min 29 sec) 
Heartbeat CPU 0 instructions: 430000002 cycles: 319352956 heartbeat IPC: 1.29392 cumulative IPC: 1.19598 (Simulation time: 0 hr 12 min 47 sec) 
Heartbeat CPU 0 instructions: 440000000 cycles: 327066170 heartbeat IPC: 1.29648 cumulative IPC: 1.19872 (Simulation time: 0 hr 13 min 5 sec) 
Heartbeat CPU 0 instructions: 450000000 cycles: 334897377 heartbeat IPC: 1.27694 cumulative IPC: 1.20082 (Simulation time: 0 hr 13 min 23 sec) 
Heartbeat CPU 0 instructions: 460000000 cycles: 342599913 heartbeat IPC: 1.29827 cumulative IPC: 1.20333 (Simulation time: 0 hr 13 min 41 sec) 
Heartbeat CPU 0 instructions: 470000003 cycles: 350171216 heartbeat IPC: 1.32078 cumulative IPC: 1.20623 (Simulation time: 0 hr 14 min 0 sec) 
Heartbeat CPU 0 instructions: 480000000 cycles: 357919212 heartbeat IPC: 1.29066 cumulative IPC: 1.20831 (Simulation time: 0 hr 14 min 18 sec) 
Heartbeat CPU 0 instructions: 490000000 cycles: 367406200 heartbeat IPC: 1.05408 cumulative IPC: 1.20379 (Simulation time: 0 hr 14 min 39 sec) 
Heartbeat CPU 0 instructions: 500000001 cycles: 377357101 heartbeat IPC: 1.00493 cumulative IPC: 1.19787 (Simulation time: 0 hr 15 min 4 sec) 
Heartbeat CPU 0 instructions: 510000001 cycles: 387229253 heartbeat IPC: 1.01295 cumulative IPC: 1.19256 (Simulation time: 0 hr 15 min 29 sec) 
Heartbeat CPU 0 instructions: 520000000 cycles: 397141907 heartbeat IPC: 1.00881 cumulative IPC: 1.18741 (Simulation time: 0 hr 15 min 54 sec) 
Heartbeat CPU 0 instructions: 530000002 cycles: 406946312 heartbeat IPC: 1.01995 cumulative IPC: 1.18289 (Simulation time: 0 hr 16 min 19 sec) 
Heartbeat CPU 0 instructions: 540000001 cycles: 416726806 heartbeat IPC: 1.02244 cumulative IPC: 1.17869 (Simulation time: 0 hr 16 min 44 sec) 
Heartbeat CPU 0 instructions: 550000000 cycles: 426507795 heartbeat IPC: 1.02239 cumulative IPC: 1.1747 (Simulation time: 0 hr 17 min 9 sec) 
Heartbeat CPU 0 instructions: 560000000 cycles: 436350099 heartbeat IPC: 1.01602 cumulative IPC: 1.17072 (Simulation time: 0 hr 17 min 34 sec) 
Heartbeat CPU 0 instructions: 570000003 cycles: 446221941 heartbeat IPC: 1.01298 cumulative IPC: 1.16685 (Simulation time: 0 hr 17 min 59 sec) 
Heartbeat CPU 0 instructions: 580000000 cycles: 456081274 heartbeat IPC: 1.01427 cumulative IPC: 1.16321 (Simulation time: 0 hr 18 min 24 sec) 
Heartbeat CPU 0 instructions: 590000000 cycles: 465875363 heartbeat IPC: 1.02102 cumulative IPC: 1.15991 (Simulation time: 0 hr 18 min 49 sec) 
Heartbeat CPU 0 instructions: 600000001 cycles: 475611033 heartbeat IPC: 1.02715 cumulative IPC: 1.15692 (Simulation time: 0 hr 19 min 14 sec) 
Heartbeat CPU 0 instructions: 610000000 cycles: 485480219 heartbeat IPC: 1.01325 cumulative IPC: 1.15371 (Simulation time: 0 hr 19 min 39 sec) 
Heartbeat CPU 0 instructions: 620000003 cycles: 500673449 heartbeat IPC: 0.658188 cumulative IPC: 1.13725 (Simulation time: 0 hr 20 min 4 sec) 
Heartbeat CPU 0 instructions: 630000001 cycles: 517241515 heartbeat IPC: 0.603571 cumulative IPC: 1.11859 (Simulation time: 0 hr 20 min 29 sec) 
Heartbeat CPU 0 instructions: 640000001 cycles: 532432002 heartbeat IPC: 0.658307 cumulative IPC: 1.10429 (Simulation time: 0 hr 20 min 55 sec) 
Heartbeat CPU 0 instructions: 650000001 cycles: 549955690 heartbeat IPC: 0.570656 cumulative IPC: 1.08583 (Simulation time: 0 hr 21 min 23 sec) 
Heartbeat CPU 0 instructions: 660000000 cycles: 563288011 heartbeat IPC: 0.750057 cumulative IPC: 1.07722 (Simulation time: 0 hr 21 min 50 sec) 
Heartbeat CPU 0 instructions: 670000003 cycles: 575864312 heartbeat IPC: 0.795147 cumulative IPC: 1.07055 (Simulation time: 0 hr 22 min 18 sec) 
Heartbeat CPU 0 instructions: 680000003 cycles: 597861407 heartbeat IPC: 0.454605 cumulative IPC: 1.04612 (Simulation time: 0 hr 22 min 51 sec) 
Heartbeat CPU 0 instructions: 690000000 cycles: 606847616 heartbeat IPC: 1.11282 cumulative IPC: 1.04718 (Simulation time: 0 hr 23 min 16 sec) 
Heartbeat CPU 0 instructions: 700000000 cycles: 616107245 heartbeat IPC: 1.07996 cumulative IPC: 1.04771 (Simulation time: 0 hr 23 min 42 sec) 
Heartbeat CPU 0 instructions: 710000002 cycles: 624744941 heartbeat IPC: 1.15772 cumulative IPC: 1.04934 (Simulation time: 0 hr 24 min 7 sec) 
Heartbeat CPU 0 instructions: 720000000 cycles: 634126190 heartbeat IPC: 1.06596 cumulative IPC: 1.04961 (Simulation time: 0 hr 24 min 31 sec) 
Heartbeat CPU 0 instructions: 730000003 cycles: 643575598 heartbeat IPC: 1.05827 cumulative IPC: 1.04974 (Simulation time: 0 hr 24 min 56 sec) 
Heartbeat CPU 0 instructions: 740000001 cycles: 655200113 heartbeat IPC: 0.860251 cumulative IPC: 1.04614 (Simulation time: 0 hr 25 min 22 sec) 
Heartbeat CPU 0 instructions: 750000003 cycles: 675235682 heartbeat IPC: 0.499112 cumulative IPC: 1.0288 (Simulation time: 0 hr 25 min 55 sec) 
Heartbeat CPU 0 instructions: 760000001 cycles: 691099282 heartbeat IPC: 0.630374 cumulative IPC: 1.01904 (Simulation time: 0 hr 26 min 26 sec) 
Heartbeat CPU 0 instructions: 770000000 cycles: 713031414 heartbeat IPC: 0.455952 cumulative IPC: 1.00059 (Simulation time: 0 hr 26 min 58 sec) 
Heartbeat CPU 0 instructions: 780000000 cycles: 728235662 heartbeat IPC: 0.657711 cumulative IPC: 0.992982 (Simulation time: 0 hr 27 min 29 sec) 
Heartbeat CPU 0 instructions: 790000003 cycles: 741981286 heartbeat IPC: 0.727504 cumulative IPC: 0.987758 (Simulation time: 0 hr 27 min 58 sec) 
Heartbeat CPU 0 instructions: 800000003 cycles: 758086483 heartbeat IPC: 0.620918 cumulative IPC: 0.979491 (Simulation time: 0 hr 28 min 26 sec) 
Heartbeat CPU 0 instructions: 810000000 cycles: 780636145 heartbeat IPC: 0.443466 cumulative IPC: 0.963095 (Simulation time: 0 hr 28 min 59 sec) 
Heartbeat CPU 0 instructions: 820000001 cycles: 810523453 heartbeat IPC: 0.33459 cumulative IPC: 0.938608 (Simulation time: 0 hr 29 min 37 sec) 
Heartbeat CPU 0 instructions: 830000003 cycles: 828325237 heartbeat IPC: 0.561742 cumulative IPC: 0.93006 (Simulation time: 0 hr 30 min 5 sec) 
Heartbeat CPU 0 instructions: 840000001 cycles: 847176970 heartbeat IPC: 0.530455 cumulative IPC: 0.920687 (Simulation time: 0 hr 30 min 35 sec) 
Heartbeat CPU 0 instructions: 850000001 cycles: 874524092 heartbeat IPC: 0.365669 cumulative IPC: 0.902425 (Simulation time: 0 hr 31 min 13 sec) 
Heartbeat CPU 0 instructions: 860000003 cycles: 891117255 heartbeat IPC: 0.602658 cumulative IPC: 0.896557 (Simulation time: 0 hr 31 min 44 sec) 
Heartbeat CPU 0 instructions: 870000003 cycles: 900459653 heartbeat IPC: 1.07039 cumulative IPC: 0.898452 (Simulation time: 0 hr 32 min 9 sec) 
Heartbeat CPU 0 instructions: 880000000 cycles: 913325027 heartbeat IPC: 0.77728 cumulative IPC: 0.89666 (Simulation time: 0 hr 32 min 36 sec) 
Heartbeat CPU 0 instructions: 890000002 cycles: 922070134 heartbeat IPC: 1.1435 cumulative IPC: 0.899116 (Simulation time: 0 hr 33 min 0 sec) 
Heartbeat CPU 0 instructions: 900000002 cycles: 934103968 heartbeat IPC: 0.83099 cumulative IPC: 0.898196 (Simulation time: 0 hr 33 min 28 sec) 
Heartbeat CPU 0 instructions: 910000002 cycles: 942521724 heartbeat IPC: 1.18797 cumulative IPC: 0.900909 (Simulation time: 0 hr 33 min 52 sec) 
Heartbeat CPU 0 instructions: 920000002 cycles: 954400484 heartbeat IPC: 0.841839 cumulative IPC: 0.900139 (Simulation time: 0 hr 34 min 19 sec) 
Heartbeat CPU 0 instructions: 930000003 cycles: 962890827 heartbeat IPC: 1.17781 cumulative IPC: 0.902703 (Simulation time: 0 hr 34 min 43 sec) 
Heartbeat CPU 0 instructions: 940000003 cycles: 974874013 heartbeat IPC: 0.834503 cumulative IPC: 0.901825 (Simulation time: 0 hr 35 min 10 sec) 
Heartbeat CPU 0 instructions: 950000001 cycles: 983288640 heartbeat IPC: 1.18841 cumulative IPC: 0.904391 (Simulation time: 0 hr 35 min 34 sec) 
Heartbeat CPU 0 instructions: 960000001 cycles: 995766388 heartbeat IPC: 0.801427 cumulative IPC: 0.903042 (Simulation time: 0 hr 36 min 1 sec) 
Heartbeat CPU 0 instructions: 970000000 cycles: 1003244721 heartbeat IPC: 1.3372 cumulative IPC: 0.906425 (Simulation time: 0 hr 36 min 24 sec) 
Heartbeat CPU 0 instructions: 980000003 cycles: 1010730501 heartbeat IPC: 1.33587 cumulative IPC: 0.909748 (Simulation time: 0 hr 36 min 46 sec) 
Heartbeat CPU 0 instructions: 990000000 cycles: 1018203902 heartbeat IPC: 1.33808 cumulative IPC: 0.913032 (Simulation time: 0 hr 37 min 8 sec) 
Heartbeat CPU 0 instructions: 1000000000 cycles: 1032463414 heartbeat IPC: 0.701286 cumulative IPC: 0.909979 (Simulation time: 0 hr 37 min 33 sec) 
Heartbeat CPU 0 instructions: 1010000002 cycles: 1054987171 heartbeat IPC: 0.443976 cumulative IPC: 0.899603 (Simulation time: 0 hr 38 min 4 sec) 
Heartbeat CPU 0 instructions: 1020000002 cycles: 1063921875 heartbeat IPC: 1.11923 cumulative IPC: 0.901526 (Simulation time: 0 hr 38 min 30 sec) 
Heartbeat CPU 0 instructions: 1030000000 cycles: 1072530239 heartbeat IPC: 1.16166 cumulative IPC: 0.903702 (Simulation time: 0 hr 38 min 55 sec) 
Heartbeat CPU 0 instructions: 1040000001 cycles: 1081840635 heartbeat IPC: 1.07407 cumulative IPC: 0.905229 (Simulation time: 0 hr 39 min 21 sec) 
Heartbeat CPU 0 instructions: 1050000001 cycles: 1090439135 heartbeat IPC: 1.16299 cumulative IPC: 0.907346 (Simulation time: 0 hr 39 min 45 sec) 
Heartbeat CPU 0 instructions: 1060000001 cycles: 1100377830 heartbeat IPC: 1.00617 cumulative IPC: 0.908275 (Simulation time: 0 hr 40 min 11 sec) 
Heartbeat CPU 0 instructions: 1070000003 cycles: 1109263715 heartbeat IPC: 1.12538 cumulative IPC: 0.910085 (Simulation time: 0 hr 40 min 36 sec) 
Heartbeat CPU 0 instructions: 1080000002 cycles: 1125456455 heartbeat IPC: 0.617561 cumulative IPC: 0.905708 (Simulation time: 0 hr 41 min 7 sec) 
Heartbeat CPU 0 instructions: 1090000002 cycles: 1145459346 heartbeat IPC: 0.499928 cumulative IPC: 0.898342 (Simulation time: 0 hr 41 min 40 sec) 
Heartbeat CPU 0 instructions: 1100000000 cycles: 1162275838 heartbeat IPC: 0.594654 cumulative IPC: 0.893778 (Simulation time: 0 hr 42 min 11 sec) 
Finished CPU 0 instructions: 1000000000 cycles: 1118846373 cumulative IPC: 0.893778 (Simulation time: 0 hr 42 min 11 sec) 

ChampSim completed all CPUs

Region of Interest Statistics

CPU 0 cumulative IPC: 0.893778 instructions: 1000000000 cycles: 1118846373
L1D TOTAL     ACCESS:  245362850  HIT:  232060690  MISS:   13302160
L1D LOAD      ACCESS:  185754014  HIT:  176214563  MISS:    9539451
L1D RFO       ACCESS:   59608836  HIT:   55846127  MISS:    3762709
L1D PREFETCH  ACCESS:          0  HIT:          0  MISS:          0
L1D WRITEBACK ACCESS:          0  HIT:          0  MISS:          0
L1D PREFETCH  REQUESTED:          0  ISSUED:          0  USEFUL:          0  USELESS:          0
L1D AVERAGE MISS LATENCY: 138.435 cycles
L1I TOTAL     ACCESS:  171428816  HIT:  170726074  MISS:     702742
L1I LOAD      ACCESS:  171428816  HIT:  170726074  MISS:     702742
L1I RFO       ACCESS:          0  HIT:          0  MISS:          0
L1I PREFETCH  ACCESS:          0  HIT:          0  MISS:          0
L1I WRITEBACK ACCESS:          0  HIT:          0  MISS:          0
L1I PREFETCH  REQUESTED:          0  ISSUED:          0  USEFUL:          0  USELESS:          0
L1I AVERAGE MISS LATENCY: 21.5754 cycles
L2C TOTAL     ACCESS:   19724339  HIT:   12371572  MISS:    7352767
L2C LOAD      ACCESS:   10241296  HIT:    4604491  MISS:    5636805
L2C RFO       ACCESS:    3740406  HIT:    2030688  MISS:    1709718
L2C PREFETCH  ACCESS:          0  HIT:          0  MISS:          0
L2C WRITEBACK ACCESS:    5742637  HIT:    5736393  MISS:       6244
L2C PREFETCH  REQUESTED:          0  ISSUED:          0  USEFUL:          0  USELESS:          0
L2C AVERAGE MISS LATENCY: 228.565 cycles
LLC TOTAL     ACCESS:   10667040  HIT:    5066778  MISS:    5600262
LLC LOAD      ACCESS:    5636801  HIT:    1426596  MISS:    4210205
LLC RFO       ACCESS:    1709714  HIT:     396337  MISS:    1313377
LLC PREFETCH  ACCESS:          0  HIT:          0  MISS:          0
LLC WRITEBACK ACCESS:    3320525  HIT:    3243845  MISS:      76680
LLC PREFETCH  REQUESTED:          0  ISSUED:          0  USEFUL:          0  USELESS:          0
LLC AVERAGE MISS LATENCY: 246.814 cycles
Major fault: 0 Minor fault: 19417

DRAM Statistics
 CHANNEL 0
 RQ ROW_BUFFER_HIT:    1104328  ROW_BUFFER_MISS:    4418928
 DBUS_CONGESTED:    2599595
 WQ ROW_BUFFER_HIT:     970284  ROW_BUFFER_MISS:    1356371  FULL:       2249

 AVG_CONGESTED_CYCLE: 6

CPU 0 Branch Prediction Accuracy: 97.1042% MPKI: 2.81547 Average ROB Occupancy at Mispredict: 109.079

Branch types
NOT_BRANCH: 902775037 90.2775%
BRANCH_DIRECT_JUMP: 4806588 0.480659%
BRANCH_INDIRECT: 59 5.9e-06%
BRANCH_CONDITIONAL: 81914089 8.19141%
BRANCH_DIRECT_CALL: 5252089 0.525209%
BRANCH_INDIRECT_CALL: 0 0%
BRANCH_RETURN: 5252094 0.525209%
BRANCH_OTHER: 0 0%

