
*** ChampSim Multicore Out-of-Order Simulator ***

Warmup Instructions: 100000000
Simulation Instructions: 1000000000
Number of CPUs: 1
LLC sets: 2048
LLC ways: 16
Off-chip DRAM Size: 4096 MB Channels: 1 Width: 64-bit Data Rate: 3200 MT/s

CPU 0 runs /scratch/user/kevin.weston/dpc3-traces/623.champsimtrace.xz
CPU 0 Bimodal branch predictor
Initialize RRPV
Initialize PRRIP state
Heartbeat CPU 0 instructions: 10000002 cycles: 5072704 heartbeat IPC: 1.97134 cumulative IPC: 1.97134 (Simulation time: 0 hr 0 min 23 sec) 
Heartbeat CPU 0 instructions: 20000001 cycles: 9526461 heartbeat IPC: 2.2453 cumulative IPC: 2.09942 (Simulation time: 0 hr 0 min 43 sec) 
Heartbeat CPU 0 instructions: 30000000 cycles: 14650805 heartbeat IPC: 1.95147 cumulative IPC: 2.04767 (Simulation time: 0 hr 1 min 6 sec) 
Heartbeat CPU 0 instructions: 40000002 cycles: 19944790 heartbeat IPC: 1.88894 cumulative IPC: 2.00554 (Simulation time: 0 hr 1 min 30 sec) 
Heartbeat CPU 0 instructions: 50000002 cycles: 25141267 heartbeat IPC: 1.92438 cumulative IPC: 1.98876 (Simulation time: 0 hr 1 min 53 sec) 
Heartbeat CPU 0 instructions: 60000003 cycles: 29685536 heartbeat IPC: 2.20057 cumulative IPC: 2.02119 (Simulation time: 0 hr 2 min 13 sec) 
Heartbeat CPU 0 instructions: 70000002 cycles: 34149555 heartbeat IPC: 2.24013 cumulative IPC: 2.04981 (Simulation time: 0 hr 2 min 34 sec) 
Heartbeat CPU 0 instructions: 80000000 cycles: 39390566 heartbeat IPC: 1.90803 cumulative IPC: 2.03094 (Simulation time: 0 hr 2 min 57 sec) 
Heartbeat CPU 0 instructions: 90000000 cycles: 44505967 heartbeat IPC: 1.95488 cumulative IPC: 2.0222 (Simulation time: 0 hr 3 min 20 sec) 
Heartbeat CPU 0 instructions: 100000001 cycles: 49808848 heartbeat IPC: 1.88577 cumulative IPC: 2.00768 (Simulation time: 0 hr 3 min 43 sec) 

Warmup complete CPU 0 instructions: 100000001 cycles: 49808848 (Simulation time: 0 hr 3 min 43 sec) 

Heartbeat CPU 0 instructions: 110000000 cycles: 69502083 heartbeat IPC: 0.507789 cumulative IPC: 0.507789 (Simulation time: 0 hr 4 min 6 sec) 
Heartbeat CPU 0 instructions: 120000003 cycles: 87514073 heartbeat IPC: 0.555186 cumulative IPC: 0.53043 (Simulation time: 0 hr 4 min 29 sec) 
Heartbeat CPU 0 instructions: 130000000 cycles: 102179492 heartbeat IPC: 0.681876 cumulative IPC: 0.57284 (Simulation time: 0 hr 4 min 50 sec) 
Heartbeat CPU 0 instructions: 140000000 cycles: 120504978 heartbeat IPC: 0.545688 cumulative IPC: 0.565802 (Simulation time: 0 hr 5 min 14 sec) 
Heartbeat CPU 0 instructions: 150000000 cycles: 142528190 heartbeat IPC: 0.454066 cumulative IPC: 0.539262 (Simulation time: 0 hr 5 min 38 sec) 
Heartbeat CPU 0 instructions: 160000000 cycles: 163110540 heartbeat IPC: 0.485853 cumulative IPC: 0.52956 (Simulation time: 0 hr 6 min 3 sec) 
Heartbeat CPU 0 instructions: 170000000 cycles: 184954759 heartbeat IPC: 0.457787 cumulative IPC: 0.517959 (Simulation time: 0 hr 6 min 28 sec) 
Heartbeat CPU 0 instructions: 180000001 cycles: 205093464 heartbeat IPC: 0.496556 cumulative IPC: 0.515183 (Simulation time: 0 hr 6 min 52 sec) 
Heartbeat CPU 0 instructions: 190000000 cycles: 223367378 heartbeat IPC: 0.547228 cumulative IPC: 0.518557 (Simulation time: 0 hr 7 min 15 sec) 
Heartbeat CPU 0 instructions: 200000002 cycles: 239014440 heartbeat IPC: 0.639098 cumulative IPC: 0.528526 (Simulation time: 0 hr 7 min 36 sec) 
Heartbeat CPU 0 instructions: 210000001 cycles: 253914526 heartbeat IPC: 0.671137 cumulative IPC: 0.538936 (Simulation time: 0 hr 7 min 58 sec) 
Heartbeat CPU 0 instructions: 220000000 cycles: 276614866 heartbeat IPC: 0.440522 cumulative IPC: 0.529086 (Simulation time: 0 hr 8 min 24 sec) 
Heartbeat CPU 0 instructions: 230000001 cycles: 296275923 heartbeat IPC: 0.50862 cumulative IPC: 0.527454 (Simulation time: 0 hr 8 min 47 sec) 
Heartbeat CPU 0 instructions: 240000001 cycles: 314329899 heartbeat IPC: 0.553895 cumulative IPC: 0.529258 (Simulation time: 0 hr 9 min 10 sec) 
Heartbeat CPU 0 instructions: 250000002 cycles: 331340884 heartbeat IPC: 0.587856 cumulative IPC: 0.532799 (Simulation time: 0 hr 9 min 32 sec) 
Heartbeat CPU 0 instructions: 260000001 cycles: 346992121 heartbeat IPC: 0.638927 cumulative IPC: 0.538388 (Simulation time: 0 hr 9 min 54 sec) 
Heartbeat CPU 0 instructions: 270000001 cycles: 358686352 heartbeat IPC: 0.855123 cumulative IPC: 0.55038 (Simulation time: 0 hr 10 min 14 sec) 
Heartbeat CPU 0 instructions: 280000001 cycles: 372159170 heartbeat IPC: 0.742235 cumulative IPC: 0.558399 (Simulation time: 0 hr 10 min 36 sec) 
Heartbeat CPU 0 instructions: 290000003 cycles: 389529451 heartbeat IPC: 0.575696 cumulative IPC: 0.559283 (Simulation time: 0 hr 10 min 59 sec) 
Heartbeat CPU 0 instructions: 300000001 cycles: 413725916 heartbeat IPC: 0.413283 cumulative IPC: 0.549576 (Simulation time: 0 hr 11 min 26 sec) 
Heartbeat CPU 0 instructions: 310000001 cycles: 433004024 heartbeat IPC: 0.518723 cumulative IPC: 0.548024 (Simulation time: 0 hr 11 min 49 sec) 
Heartbeat CPU 0 instructions: 320000000 cycles: 454144368 heartbeat IPC: 0.473029 cumulative IPC: 0.544103 (Simulation time: 0 hr 12 min 15 sec) 
Heartbeat CPU 0 instructions: 330000000 cycles: 474080213 heartbeat IPC: 0.501609 cumulative IPC: 0.542106 (Simulation time: 0 hr 12 min 39 sec) 
Heartbeat CPU 0 instructions: 340000000 cycles: 492267288 heartbeat IPC: 0.549841 cumulative IPC: 0.542424 (Simulation time: 0 hr 13 min 2 sec) 
Heartbeat CPU 0 instructions: 350000003 cycles: 509387921 heartbeat IPC: 0.584091 cumulative IPC: 0.543976 (Simulation time: 0 hr 13 min 25 sec) 
Heartbeat CPU 0 instructions: 360000000 cycles: 525776924 heartbeat IPC: 0.610165 cumulative IPC: 0.546255 (Simulation time: 0 hr 13 min 47 sec) 
Heartbeat CPU 0 instructions: 370000001 cycles: 541522827 heartbeat IPC: 0.635086 cumulative IPC: 0.5491 (Simulation time: 0 hr 14 min 9 sec) 
Heartbeat CPU 0 instructions: 380000002 cycles: 552864362 heartbeat IPC: 0.881715 cumulative IPC: 0.556599 (Simulation time: 0 hr 14 min 30 sec) 
Heartbeat CPU 0 instructions: 390000001 cycles: 564311896 heartbeat IPC: 0.87355 cumulative IPC: 0.563651 (Simulation time: 0 hr 14 min 51 sec) 
Heartbeat CPU 0 instructions: 400000001 cycles: 577314173 heartbeat IPC: 0.769096 cumulative IPC: 0.568715 (Simulation time: 0 hr 15 min 13 sec) 
Heartbeat CPU 0 instructions: 410000000 cycles: 592767260 heartbeat IPC: 0.64712 cumulative IPC: 0.570946 (Simulation time: 0 hr 15 min 35 sec) 
Heartbeat CPU 0 instructions: 420000000 cycles: 615409391 heartbeat IPC: 0.441655 cumulative IPC: 0.56577 (Simulation time: 0 hr 16 min 0 sec) 
Heartbeat CPU 0 instructions: 430000003 cycles: 636176115 heartbeat IPC: 0.48154 cumulative IPC: 0.562787 (Simulation time: 0 hr 16 min 25 sec) 
Heartbeat CPU 0 instructions: 440000000 cycles: 654737953 heartbeat IPC: 0.53874 cumulative IPC: 0.562049 (Simulation time: 0 hr 16 min 48 sec) 
Heartbeat CPU 0 instructions: 450000001 cycles: 671384999 heartbeat IPC: 0.600707 cumulative IPC: 0.563085 (Simulation time: 0 hr 17 min 10 sec) 
Heartbeat CPU 0 instructions: 460000001 cycles: 685332135 heartbeat IPC: 0.716993 cumulative IPC: 0.566462 (Simulation time: 0 hr 17 min 31 sec) 
Heartbeat CPU 0 instructions: 470000001 cycles: 707869811 heartbeat IPC: 0.443701 cumulative IPC: 0.562258 (Simulation time: 0 hr 17 min 57 sec) 
Heartbeat CPU 0 instructions: 480000001 cycles: 727725542 heartbeat IPC: 0.503633 cumulative IPC: 0.560541 (Simulation time: 0 hr 18 min 21 sec) 
Heartbeat CPU 0 instructions: 490000002 cycles: 744889330 heartbeat IPC: 0.582622 cumulative IPC: 0.561086 (Simulation time: 0 hr 18 min 43 sec) 
Heartbeat CPU 0 instructions: 500000000 cycles: 765571418 heartbeat IPC: 0.48351 cumulative IPC: 0.558845 (Simulation time: 0 hr 19 min 9 sec) 
Heartbeat CPU 0 instructions: 510000000 cycles: 786312955 heartbeat IPC: 0.482124 cumulative IPC: 0.556684 (Simulation time: 0 hr 19 min 34 sec) 
Heartbeat CPU 0 instructions: 520000003 cycles: 805008605 heartbeat IPC: 0.534884 cumulative IPC: 0.556144 (Simulation time: 0 hr 19 min 57 sec) 
Heartbeat CPU 0 instructions: 530000000 cycles: 822503070 heartbeat IPC: 0.571609 cumulative IPC: 0.556494 (Simulation time: 0 hr 20 min 20 sec) 
Heartbeat CPU 0 instructions: 540000001 cycles: 839110006 heartbeat IPC: 0.602158 cumulative IPC: 0.557455 (Simulation time: 0 hr 20 min 42 sec) 
Heartbeat CPU 0 instructions: 550000000 cycles: 855065192 heartbeat IPC: 0.626755 cumulative IPC: 0.558828 (Simulation time: 0 hr 21 min 4 sec) 
Heartbeat CPU 0 instructions: 560000001 cycles: 870524554 heartbeat IPC: 0.646857 cumulative IPC: 0.560486 (Simulation time: 0 hr 21 min 26 sec) 
Heartbeat CPU 0 instructions: 570000000 cycles: 881222246 heartbeat IPC: 0.934781 cumulative IPC: 0.565302 (Simulation time: 0 hr 21 min 47 sec) 
Heartbeat CPU 0 instructions: 580000001 cycles: 892318423 heartbeat IPC: 0.901211 cumulative IPC: 0.569726 (Simulation time: 0 hr 22 min 8 sec) 
Heartbeat CPU 0 instructions: 590000001 cycles: 904846968 heartbeat IPC: 0.798177 cumulative IPC: 0.573074 (Simulation time: 0 hr 22 min 30 sec) 
Heartbeat CPU 0 instructions: 600000001 cycles: 919080754 heartbeat IPC: 0.702554 cumulative IPC: 0.575194 (Simulation time: 0 hr 22 min 52 sec) 
Heartbeat CPU 0 instructions: 610000001 cycles: 936773623 heartbeat IPC: 0.565199 cumulative IPC: 0.574995 (Simulation time: 0 hr 23 min 15 sec) 
Heartbeat CPU 0 instructions: 620000002 cycles: 960320049 heartbeat IPC: 0.424693 cumulative IPC: 0.571108 (Simulation time: 0 hr 23 min 41 sec) 
Heartbeat CPU 0 instructions: 630000002 cycles: 982193866 heartbeat IPC: 0.457168 cumulative IPC: 0.568435 (Simulation time: 0 hr 24 min 6 sec) 
Heartbeat CPU 0 instructions: 640000002 cycles: 1004278152 heartbeat IPC: 0.452811 cumulative IPC: 0.565759 (Simulation time: 0 hr 24 min 32 sec) 
Heartbeat CPU 0 instructions: 650000000 cycles: 1023622334 heartbeat IPC: 0.516951 cumulative IPC: 0.56479 (Simulation time: 0 hr 24 min 56 sec) 
Heartbeat CPU 0 instructions: 660000000 cycles: 1041519165 heartbeat IPC: 0.558758 cumulative IPC: 0.564681 (Simulation time: 0 hr 25 min 19 sec) 
Heartbeat CPU 0 instructions: 670000003 cycles: 1058382654 heartbeat IPC: 0.592997 cumulative IPC: 0.565154 (Simulation time: 0 hr 25 min 41 sec) 
Heartbeat CPU 0 instructions: 680000000 cycles: 1073933112 heartbeat IPC: 0.643068 cumulative IPC: 0.566338 (Simulation time: 0 hr 26 min 3 sec) 
Heartbeat CPU 0 instructions: 690000001 cycles: 1085091471 heartbeat IPC: 0.896189 cumulative IPC: 0.569893 (Simulation time: 0 hr 26 min 24 sec) 
Heartbeat CPU 0 instructions: 700000001 cycles: 1098391909 heartbeat IPC: 0.751855 cumulative IPC: 0.572201 (Simulation time: 0 hr 26 min 45 sec) 
Heartbeat CPU 0 instructions: 710000000 cycles: 1115511627 heartbeat IPC: 0.584122 cumulative IPC: 0.572392 (Simulation time: 0 hr 27 min 9 sec) 
Heartbeat CPU 0 instructions: 720000002 cycles: 1138370329 heartbeat IPC: 0.43747 cumulative IPC: 0.569559 (Simulation time: 0 hr 27 min 34 sec) 
Heartbeat CPU 0 instructions: 730000000 cycles: 1159539542 heartbeat IPC: 0.472384 cumulative IPC: 0.567705 (Simulation time: 0 hr 28 min 0 sec) 
Heartbeat CPU 0 instructions: 740000000 cycles: 1181288135 heartbeat IPC: 0.4598 cumulative IPC: 0.565631 (Simulation time: 0 hr 28 min 25 sec) 
Heartbeat CPU 0 instructions: 750000002 cycles: 1204506337 heartbeat IPC: 0.430697 cumulative IPC: 0.562918 (Simulation time: 0 hr 28 min 51 sec) 
Heartbeat CPU 0 instructions: 760000000 cycles: 1227835768 heartbeat IPC: 0.428643 cumulative IPC: 0.560259 (Simulation time: 0 hr 29 min 18 sec) 
Heartbeat CPU 0 instructions: 770000000 cycles: 1247918113 heartbeat IPC: 0.49795 cumulative IPC: 0.559214 (Simulation time: 0 hr 29 min 42 sec) 
Heartbeat CPU 0 instructions: 780000002 cycles: 1266263030 heartbeat IPC: 0.54511 cumulative IPC: 0.559002 (Simulation time: 0 hr 30 min 5 sec) 
Heartbeat CPU 0 instructions: 790000000 cycles: 1283317434 heartbeat IPC: 0.586359 cumulative IPC: 0.55938 (Simulation time: 0 hr 30 min 27 sec) 
Heartbeat CPU 0 instructions: 800000002 cycles: 1296234651 heartbeat IPC: 0.774161 cumulative IPC: 0.561606 (Simulation time: 0 hr 30 min 48 sec) 
Heartbeat CPU 0 instructions: 810000002 cycles: 1313235857 heartbeat IPC: 0.588194 cumulative IPC: 0.561964 (Simulation time: 0 hr 31 min 12 sec) 
Heartbeat CPU 0 instructions: 820000002 cycles: 1336054977 heartbeat IPC: 0.438229 cumulative IPC: 0.559768 (Simulation time: 0 hr 31 min 38 sec) 
Heartbeat CPU 0 instructions: 830000000 cycles: 1356554376 heartbeat IPC: 0.487819 cumulative IPC: 0.55864 (Simulation time: 0 hr 32 min 3 sec) 
Heartbeat CPU 0 instructions: 840000000 cycles: 1378924716 heartbeat IPC: 0.44702 cumulative IPC: 0.556761 (Simulation time: 0 hr 32 min 29 sec) 
Heartbeat CPU 0 instructions: 850000001 cycles: 1398161705 heartbeat IPC: 0.519832 cumulative IPC: 0.556234 (Simulation time: 0 hr 32 min 53 sec) 
Heartbeat CPU 0 instructions: 860000000 cycles: 1416983983 heartbeat IPC: 0.531285 cumulative IPC: 0.555891 (Simulation time: 0 hr 33 min 17 sec) 
Heartbeat CPU 0 instructions: 870000001 cycles: 1437802482 heartbeat IPC: 0.480342 cumulative IPC: 0.554758 (Simulation time: 0 hr 33 min 41 sec) 
Heartbeat CPU 0 instructions: 880000000 cycles: 1456330067 heartbeat IPC: 0.539736 cumulative IPC: 0.55456 (Simulation time: 0 hr 34 min 4 sec) 
Heartbeat CPU 0 instructions: 890000000 cycles: 1472720174 heartbeat IPC: 0.610124 cumulative IPC: 0.5552 (Simulation time: 0 hr 34 min 26 sec) 
Heartbeat CPU 0 instructions: 900000001 cycles: 1496606179 heartbeat IPC: 0.418655 cumulative IPC: 0.552945 (Simulation time: 0 hr 34 min 53 sec) 
Heartbeat CPU 0 instructions: 910000000 cycles: 1516822152 heartbeat IPC: 0.494658 cumulative IPC: 0.552142 (Simulation time: 0 hr 35 min 17 sec) 
Heartbeat CPU 0 instructions: 920000001 cycles: 1535202551 heartbeat IPC: 0.544058 cumulative IPC: 0.552042 (Simulation time: 0 hr 35 min 39 sec) 
Heartbeat CPU 0 instructions: 930000000 cycles: 1550256778 heartbeat IPC: 0.664265 cumulative IPC: 0.553168 (Simulation time: 0 hr 36 min 1 sec) 
Heartbeat CPU 0 instructions: 940000002 cycles: 1570256800 heartbeat IPC: 0.5 cumulative IPC: 0.552469 (Simulation time: 0 hr 36 min 25 sec) 
Heartbeat CPU 0 instructions: 950000002 cycles: 1590725685 heartbeat IPC: 0.488546 cumulative IPC: 0.55162 (Simulation time: 0 hr 36 min 50 sec) 
Heartbeat CPU 0 instructions: 960000001 cycles: 1611919643 heartbeat IPC: 0.471833 cumulative IPC: 0.550537 (Simulation time: 0 hr 37 min 15 sec) 
Heartbeat CPU 0 instructions: 970000001 cycles: 1631614039 heartbeat IPC: 0.507759 cumulative IPC: 0.550005 (Simulation time: 0 hr 37 min 39 sec) 
Heartbeat CPU 0 instructions: 980000000 cycles: 1649656636 heartbeat IPC: 0.554244 cumulative IPC: 0.550052 (Simulation time: 0 hr 38 min 1 sec) 
Heartbeat CPU 0 instructions: 990000000 cycles: 1666666900 heartbeat IPC: 0.58788 cumulative IPC: 0.55045 (Simulation time: 0 hr 38 min 23 sec) 
Heartbeat CPU 0 instructions: 1000000000 cycles: 1679698761 heartbeat IPC: 0.76735 cumulative IPC: 0.552185 (Simulation time: 0 hr 38 min 44 sec) 
Heartbeat CPU 0 instructions: 1010000001 cycles: 1693768504 heartbeat IPC: 0.710745 cumulative IPC: 0.553542 (Simulation time: 0 hr 39 min 5 sec) 
Heartbeat CPU 0 instructions: 1020000002 cycles: 1715172110 heartbeat IPC: 0.467211 cumulative IPC: 0.552432 (Simulation time: 0 hr 39 min 30 sec) 
Heartbeat CPU 0 instructions: 1030000000 cycles: 1735729097 heartbeat IPC: 0.486453 cumulative IPC: 0.551628 (Simulation time: 0 hr 39 min 55 sec) 
Heartbeat CPU 0 instructions: 1040000000 cycles: 1753953120 heartbeat IPC: 0.548726 cumulative IPC: 0.551596 (Simulation time: 0 hr 40 min 17 sec) 
Heartbeat CPU 0 instructions: 1050000000 cycles: 1772331292 heartbeat IPC: 0.544124 cumulative IPC: 0.551517 (Simulation time: 0 hr 40 min 41 sec) 
Heartbeat CPU 0 instructions: 1060000002 cycles: 1793478714 heartbeat IPC: 0.472871 cumulative IPC: 0.550563 (Simulation time: 0 hr 41 min 5 sec) 
Heartbeat CPU 0 instructions: 1070000003 cycles: 1811993893 heartbeat IPC: 0.540097 cumulative IPC: 0.550453 (Simulation time: 0 hr 41 min 28 sec) 
Heartbeat CPU 0 instructions: 1080000001 cycles: 1827508115 heartbeat IPC: 0.64457 cumulative IPC: 0.551274 (Simulation time: 0 hr 41 min 50 sec) 
Heartbeat CPU 0 instructions: 1090000001 cycles: 1849657362 heartbeat IPC: 0.451483 cumulative IPC: 0.550046 (Simulation time: 0 hr 42 min 16 sec) 
Heartbeat CPU 0 instructions: 1100000000 cycles: 1869079257 heartbeat IPC: 0.514883 cumulative IPC: 0.549671 (Simulation time: 0 hr 42 min 39 sec) 
Finished CPU 0 instructions: 1000000000 cycles: 1819270410 cumulative IPC: 0.549671 (Simulation time: 0 hr 42 min 39 sec) 

ChampSim completed all CPUs

Region of Interest Statistics

CPU 0 cumulative IPC: 0.549671 instructions: 1000000000 cycles: 1819270410
L1D TOTAL     ACCESS:  235112464  HIT:  182429712  MISS:   52682752
L1D LOAD      ACCESS:  168386231  HIT:  117374810  MISS:   51011421
L1D RFO       ACCESS:   66726233  HIT:   65054902  MISS:    1671331
L1D PREFETCH  ACCESS:          0  HIT:          0  MISS:          0
L1D WRITEBACK ACCESS:          0  HIT:          0  MISS:          0
L1D PREFETCH  REQUESTED:          0  ISSUED:          0  USEFUL:          0  USELESS:          0
L1D AVERAGE MISS LATENCY: 33.8664 cycles
L1I TOTAL     ACCESS:  219382919  HIT:  216922230  MISS:    2460689
L1I LOAD      ACCESS:  219382919  HIT:  216922230  MISS:    2460689
L1I RFO       ACCESS:          0  HIT:          0  MISS:          0
L1I PREFETCH  ACCESS:          0  HIT:          0  MISS:          0
L1I WRITEBACK ACCESS:          0  HIT:          0  MISS:          0
L1I PREFETCH  REQUESTED:          0  ISSUED:          0  USEFUL:          0  USELESS:          0
L1I AVERAGE MISS LATENCY: 20.0757 cycles
L2C TOTAL     ACCESS:   57894093  HIT:   36749514  MISS:   21144579
L2C LOAD      ACCESS:   53471455  HIT:   33689307  MISS:   19782148
L2C RFO       ACCESS:    1671278  HIT:     309025  MISS:    1362253
L2C PREFETCH  ACCESS:          0  HIT:          0  MISS:          0
L2C WRITEBACK ACCESS:    2751360  HIT:    2751182  MISS:        178
L2C PREFETCH  REQUESTED:          0  ISSUED:          0  USEFUL:          0  USELESS:          0
L2C AVERAGE MISS LATENCY: 52.356 cycles
LLC TOTAL     ACCESS:   23028112  HIT:   21701049  MISS:    1327063
LLC LOAD      ACCESS:   19782110  HIT:   19539450  MISS:     242660
LLC RFO       ACCESS:    1362247  HIT:     293746  MISS:    1068501
LLC PREFETCH  ACCESS:          0  HIT:          0  MISS:          0
LLC WRITEBACK ACCESS:    1883755  HIT:    1867853  MISS:      15902
LLC PREFETCH  REQUESTED:          0  ISSUED:          0  USEFUL:          0  USELESS:          0
LLC AVERAGE MISS LATENCY: 161.587 cycles
Major fault: 0 Minor fault: 6208
==============================
Perceptron RRIP Stats:
   Num Updates:          25376815
   Num Primary Trains:   56937
   Num Secondary Trains: 53277
==============================
primary_perceptron #0: 1 -7 -3 3 -3 1 -1 1 -3 -5 3 -7 -1 -1 -3 -3 
secondary_perceptron #0: 1 -9 -1 3 -1 -1 3 1 -3 -9 7 -9 1 -3 -1 -1 -5 7 3 -7 5 


DRAM Statistics
 CHANNEL 0
 RQ ROW_BUFFER_HIT:     578560  ROW_BUFFER_MISS:     732591
 DBUS_CONGESTED:    1078091
 WQ ROW_BUFFER_HIT:     202083  ROW_BUFFER_MISS:    1004292  FULL:          0

 AVG_CONGESTED_CYCLE: 6

CPU 0 Branch Prediction Accuracy: 97.9229% MPKI: 5.94568 Average ROB Occupancy at Mispredict: 44.3159

Branch types
NOT_BRANCH: 713754972 71.3755%
BRANCH_DIRECT_JUMP: 7870399 0.78704%
BRANCH_INDIRECT: 2818396 0.28184%
BRANCH_CONDITIONAL: 244384419 24.4384%
BRANCH_DIRECT_CALL: 9876498 0.98765%
BRANCH_INDIRECT_CALL: 5709278 0.570928%
BRANCH_RETURN: 15585777 1.55858%
BRANCH_OTHER: 0 0%

