
*** ChampSim Multicore Out-of-Order Simulator ***

Warmup Instructions: 100000000
Simulation Instructions: 1000000000
Number of CPUs: 1
LLC sets: 2048
LLC ways: 16
Off-chip DRAM Size: 4096 MB Channels: 1 Width: 64-bit Data Rate: 3200 MT/s

CPU 0 runs /scratch/user/kevin.weston/dpc3-traces/623.champsimtrace.xz
CPU 0 Bimodal branch predictor
Initialize SHIP state
Assign rand_sets[0]: 454  LLC: 2048
rand_sets[0]: 454
Assign rand_sets[1]: 1662  LLC: 2048
rand_sets[1]: 1662
Assign rand_sets[2]: 1921  LLC: 2048
rand_sets[2]: 1921
Assign rand_sets[3]: 1131  LLC: 2048
rand_sets[3]: 1131
Assign rand_sets[4]: 331  LLC: 2048
rand_sets[4]: 331
Assign rand_sets[5]: 1531  LLC: 2048
rand_sets[5]: 1531
Assign rand_sets[6]: 482  LLC: 2048
rand_sets[6]: 482
Assign rand_sets[7]: 1275  LLC: 2048
rand_sets[7]: 1275
Assign rand_sets[8]: 1876  LLC: 2048
rand_sets[8]: 1876
Assign rand_sets[9]: 2038  LLC: 2048
rand_sets[9]: 2038
Assign rand_sets[10]: 701  LLC: 2048
rand_sets[10]: 701
Assign rand_sets[11]: 479  LLC: 2048
rand_sets[11]: 479
Assign rand_sets[12]: 892  LLC: 2048
rand_sets[12]: 892
Assign rand_sets[13]: 1820  LLC: 2048
rand_sets[13]: 1820
Assign rand_sets[14]: 1505  LLC: 2048
rand_sets[14]: 1505
Assign rand_sets[15]: 1159  LLC: 2048
rand_sets[15]: 1159
Assign rand_sets[16]: 513  LLC: 2048
rand_sets[16]: 513
Assign rand_sets[17]: 703  LLC: 2048
rand_sets[17]: 703
Assign rand_sets[18]: 561  LLC: 2048
rand_sets[18]: 561
Assign rand_sets[19]: 990  LLC: 2048
rand_sets[19]: 990
Assign rand_sets[20]: 342  LLC: 2048
rand_sets[20]: 342
Assign rand_sets[21]: 882  LLC: 2048
rand_sets[21]: 882
Assign rand_sets[22]: 15  LLC: 2048
rand_sets[22]: 15
Assign rand_sets[23]: 71  LLC: 2048
rand_sets[23]: 71
Assign rand_sets[24]: 1127  LLC: 2048
rand_sets[24]: 1127
Assign rand_sets[25]: 1382  LLC: 2048
rand_sets[25]: 1382
Assign rand_sets[26]: 647  LLC: 2048
rand_sets[26]: 647
Assign rand_sets[27]: 857  LLC: 2048
rand_sets[27]: 857
Assign rand_sets[28]: 1450  LLC: 2048
rand_sets[28]: 1450
Assign rand_sets[29]: 1160  LLC: 2048
rand_sets[29]: 1160
Assign rand_sets[30]: 1852  LLC: 2048
rand_sets[30]: 1852
Assign rand_sets[31]: 1881  LLC: 2048
rand_sets[31]: 1881
Assign rand_sets[32]: 1770  LLC: 2048
rand_sets[32]: 1770
Assign rand_sets[33]: 1622  LLC: 2048
rand_sets[33]: 1622
Assign rand_sets[34]: 275  LLC: 2048
rand_sets[34]: 275
Assign rand_sets[35]: 635  LLC: 2048
rand_sets[35]: 635
Assign rand_sets[36]: 466  LLC: 2048
rand_sets[36]: 466
Assign rand_sets[37]: 1413  LLC: 2048
rand_sets[37]: 1413
Assign rand_sets[38]: 417  LLC: 2048
rand_sets[38]: 417
Assign rand_sets[39]: 472  LLC: 2048
rand_sets[39]: 472
Assign rand_sets[40]: 1340  LLC: 2048
rand_sets[40]: 1340
Assign rand_sets[41]: 852  LLC: 2048
rand_sets[41]: 852
Assign rand_sets[42]: 1365  LLC: 2048
rand_sets[42]: 1365
Assign rand_sets[43]: 47  LLC: 2048
rand_sets[43]: 47
Assign rand_sets[44]: 823  LLC: 2048
rand_sets[44]: 823
Assign rand_sets[45]: 686  LLC: 2048
rand_sets[45]: 686
Assign rand_sets[46]: 1637  LLC: 2048
rand_sets[46]: 1637
Assign rand_sets[47]: 1115  LLC: 2048
rand_sets[47]: 1115
Assign rand_sets[48]: 986  LLC: 2048
rand_sets[48]: 986
Assign rand_sets[49]: 258  LLC: 2048
rand_sets[49]: 258
Assign rand_sets[50]: 633  LLC: 2048
rand_sets[50]: 633
Assign rand_sets[51]: 920  LLC: 2048
rand_sets[51]: 920
Assign rand_sets[52]: 204  LLC: 2048
rand_sets[52]: 204
Assign rand_sets[53]: 227  LLC: 2048
rand_sets[53]: 227
Assign rand_sets[54]: 1818  LLC: 2048
rand_sets[54]: 1818
Assign rand_sets[55]: 886  LLC: 2048
rand_sets[55]: 886
Assign rand_sets[56]: 1422  LLC: 2048
rand_sets[56]: 1422
Assign rand_sets[57]: 607  LLC: 2048
rand_sets[57]: 607
Assign rand_sets[58]: 217  LLC: 2048
rand_sets[58]: 217
Assign rand_sets[59]: 1945  LLC: 2048
rand_sets[59]: 1945
Assign rand_sets[60]: 143  LLC: 2048
rand_sets[60]: 143
Assign rand_sets[61]: 1311  LLC: 2048
rand_sets[61]: 1311
Assign rand_sets[62]: 319  LLC: 2048
rand_sets[62]: 319
Assign rand_sets[63]: 1846  LLC: 2048
rand_sets[63]: 1846
Assign rand_sets[64]: 238  LLC: 2048
rand_sets[64]: 238
Assign rand_sets[65]: 67  LLC: 2048
rand_sets[65]: 67
Assign rand_sets[66]: 1912  LLC: 2048
rand_sets[66]: 1912
Assign rand_sets[67]: 1613  LLC: 2048
rand_sets[67]: 1613
Assign rand_sets[68]: 1293  LLC: 2048
rand_sets[68]: 1293
Assign rand_sets[69]: 1018  LLC: 2048
rand_sets[69]: 1018
Assign rand_sets[70]: 1982  LLC: 2048
rand_sets[70]: 1982
Assign rand_sets[71]: 1702  LLC: 2048
rand_sets[71]: 1702
Assign rand_sets[72]: 1498  LLC: 2048
rand_sets[72]: 1498
Assign rand_sets[73]: 228  LLC: 2048
rand_sets[73]: 228
Assign rand_sets[74]: 1414  LLC: 2048
rand_sets[74]: 1414
Assign rand_sets[75]: 1166  LLC: 2048
rand_sets[75]: 1166
Assign rand_sets[76]: 732  LLC: 2048
rand_sets[76]: 732
Assign rand_sets[77]: 297  LLC: 2048
rand_sets[77]: 297
Assign rand_sets[78]: 1133  LLC: 2048
rand_sets[78]: 1133
Assign rand_sets[79]: 846  LLC: 2048
rand_sets[79]: 846
Assign rand_sets[80]: 767  LLC: 2048
rand_sets[80]: 767
Assign rand_sets[81]: 1878  LLC: 2048
rand_sets[81]: 1878
Assign rand_sets[82]: 993  LLC: 2048
rand_sets[82]: 993
Assign rand_sets[83]: 1392  LLC: 2048
rand_sets[83]: 1392
Assign rand_sets[84]: 1568  LLC: 2048
rand_sets[84]: 1568
Assign rand_sets[85]: 1787  LLC: 2048
rand_sets[85]: 1787
Assign rand_sets[86]: 399  LLC: 2048
rand_sets[86]: 399
Assign rand_sets[87]: 1201  LLC: 2048
rand_sets[87]: 1201
Assign rand_sets[88]: 856  LLC: 2048
rand_sets[88]: 856
Assign rand_sets[89]: 773  LLC: 2048
rand_sets[89]: 773
Assign rand_sets[90]: 1680  LLC: 2048
rand_sets[90]: 1680
Assign rand_sets[91]: 1477  LLC: 2048
rand_sets[91]: 1477
Assign rand_sets[92]: 9  LLC: 2048
rand_sets[92]: 9
Assign rand_sets[93]: 1500  LLC: 2048
rand_sets[93]: 1500
Assign rand_sets[94]: 851  LLC: 2048
rand_sets[94]: 851
Assign rand_sets[95]: 973  LLC: 2048
rand_sets[95]: 973
Assign rand_sets[96]: 938  LLC: 2048
rand_sets[96]: 938
Assign rand_sets[97]: 1851  LLC: 2048
rand_sets[97]: 1851
Assign rand_sets[98]: 1608  LLC: 2048
rand_sets[98]: 1608
Assign rand_sets[99]: 1945  LLC: 2048
Assign rand_sets[99]: 1106  LLC: 2048
rand_sets[99]: 1106
Assign rand_sets[100]: 979  LLC: 2048
rand_sets[100]: 979
Assign rand_sets[101]: 338  LLC: 2048
rand_sets[101]: 338
Assign rand_sets[102]: 1693  LLC: 2048
rand_sets[102]: 1693
Assign rand_sets[103]: 6  LLC: 2048
rand_sets[103]: 6
Assign rand_sets[104]: 671  LLC: 2048
rand_sets[104]: 671
Assign rand_sets[105]: 490  LLC: 2048
rand_sets[105]: 490
Assign rand_sets[106]: 1461  LLC: 2048
rand_sets[106]: 1461
Assign rand_sets[107]: 1730  LLC: 2048
rand_sets[107]: 1730
Assign rand_sets[108]: 1030  LLC: 2048
rand_sets[108]: 1030
Assign rand_sets[109]: 19  LLC: 2048
rand_sets[109]: 19
Assign rand_sets[110]: 920  LLC: 2048
Assign rand_sets[110]: 329  LLC: 2048
rand_sets[110]: 329
Assign rand_sets[111]: 1714  LLC: 2048
rand_sets[111]: 1714
Assign rand_sets[112]: 1  LLC: 2048
rand_sets[112]: 1
Assign rand_sets[113]: 1822  LLC: 2048
rand_sets[113]: 1822
Assign rand_sets[114]: 172  LLC: 2048
rand_sets[114]: 172
Assign rand_sets[115]: 1586  LLC: 2048
rand_sets[115]: 1586
Assign rand_sets[116]: 648  LLC: 2048
rand_sets[116]: 648
Assign rand_sets[117]: 1329  LLC: 2048
rand_sets[117]: 1329
Assign rand_sets[118]: 668  LLC: 2048
rand_sets[118]: 668
Assign rand_sets[119]: 1874  LLC: 2048
rand_sets[119]: 1874
Assign rand_sets[120]: 70  LLC: 2048
rand_sets[120]: 70
Assign rand_sets[121]: 661  LLC: 2048
rand_sets[121]: 661
Assign rand_sets[122]: 1649  LLC: 2048
rand_sets[122]: 1649
Assign rand_sets[123]: 1590  LLC: 2048
rand_sets[123]: 1590
Assign rand_sets[124]: 911  LLC: 2048
rand_sets[124]: 911
Assign rand_sets[125]: 1367  LLC: 2048
rand_sets[125]: 1367
Assign rand_sets[126]: 1782  LLC: 2048
rand_sets[126]: 1782
Assign rand_sets[127]: 569  LLC: 2048
rand_sets[127]: 569
Heartbeat CPU 0 instructions: 10000002 cycles: 5066596 heartbeat IPC: 1.97371 cumulative IPC: 1.97371 (Simulation time: 0 hr 0 min 23 sec) 
Heartbeat CPU 0 instructions: 20000001 cycles: 9506237 heartbeat IPC: 2.25243 cumulative IPC: 2.10388 (Simulation time: 0 hr 0 min 44 sec) 
Heartbeat CPU 0 instructions: 30000000 cycles: 14617022 heartbeat IPC: 1.95665 cumulative IPC: 2.0524 (Simulation time: 0 hr 1 min 7 sec) 
Heartbeat CPU 0 instructions: 40000002 cycles: 19904303 heartbeat IPC: 1.89133 cumulative IPC: 2.00962 (Simulation time: 0 hr 1 min 31 sec) 
Heartbeat CPU 0 instructions: 50000002 cycles: 25096420 heartbeat IPC: 1.926 cumulative IPC: 1.99232 (Simulation time: 0 hr 1 min 54 sec) 
Heartbeat CPU 0 instructions: 60000003 cycles: 29630794 heartbeat IPC: 2.20538 cumulative IPC: 2.02492 (Simulation time: 0 hr 2 min 14 sec) 
Heartbeat CPU 0 instructions: 70000002 cycles: 34080702 heartbeat IPC: 2.24724 cumulative IPC: 2.05395 (Simulation time: 0 hr 2 min 35 sec) 
Heartbeat CPU 0 instructions: 80000000 cycles: 39305566 heartbeat IPC: 1.91393 cumulative IPC: 2.03534 (Simulation time: 0 hr 2 min 57 sec) 
Heartbeat CPU 0 instructions: 90000000 cycles: 44406556 heartbeat IPC: 1.9604 cumulative IPC: 2.02673 (Simulation time: 0 hr 3 min 20 sec) 
Heartbeat CPU 0 instructions: 100000001 cycles: 49694763 heartbeat IPC: 1.891 cumulative IPC: 2.01228 (Simulation time: 0 hr 3 min 43 sec) 

Warmup complete CPU 0 instructions: 100000001 cycles: 49694763 (Simulation time: 0 hr 3 min 43 sec) 

Heartbeat CPU 0 instructions: 110000000 cycles: 69072416 heartbeat IPC: 0.516058 cumulative IPC: 0.516058 (Simulation time: 0 hr 4 min 7 sec) 
Heartbeat CPU 0 instructions: 120000003 cycles: 86874149 heartbeat IPC: 0.561743 cumulative IPC: 0.537933 (Simulation time: 0 hr 4 min 29 sec) 
Heartbeat CPU 0 instructions: 130000000 cycles: 101157308 heartbeat IPC: 0.700125 cumulative IPC: 0.582948 (Simulation time: 0 hr 4 min 50 sec) 
Heartbeat CPU 0 instructions: 140000000 cycles: 118691430 heartbeat IPC: 0.570317 cumulative IPC: 0.579738 (Simulation time: 0 hr 5 min 13 sec) 
Heartbeat CPU 0 instructions: 150000000 cycles: 140050352 heartbeat IPC: 0.468188 cumulative IPC: 0.553369 (Simulation time: 0 hr 5 min 38 sec) 
Heartbeat CPU 0 instructions: 160000002 cycles: 160013117 heartbeat IPC: 0.500933 cumulative IPC: 0.543881 (Simulation time: 0 hr 6 min 2 sec) 
Heartbeat CPU 0 instructions: 170000000 cycles: 181373920 heartbeat IPC: 0.468147 cumulative IPC: 0.531595 (Simulation time: 0 hr 6 min 28 sec) 
Heartbeat CPU 0 instructions: 180000001 cycles: 201160853 heartbeat IPC: 0.505384 cumulative IPC: 0.528171 (Simulation time: 0 hr 6 min 51 sec) 
Heartbeat CPU 0 instructions: 190000002 cycles: 219195727 heartbeat IPC: 0.554481 cumulative IPC: 0.53097 (Simulation time: 0 hr 7 min 14 sec) 
Heartbeat CPU 0 instructions: 200000002 cycles: 234574020 heartbeat IPC: 0.650267 cumulative IPC: 0.540894 (Simulation time: 0 hr 7 min 35 sec) 
Heartbeat CPU 0 instructions: 210000001 cycles: 248998465 heartbeat IPC: 0.693268 cumulative IPC: 0.551921 (Simulation time: 0 hr 7 min 57 sec) 
Heartbeat CPU 0 instructions: 220000000 cycles: 270790648 heartbeat IPC: 0.45888 cumulative IPC: 0.542751 (Simulation time: 0 hr 8 min 23 sec) 
Heartbeat CPU 0 instructions: 230000001 cycles: 290137609 heartbeat IPC: 0.516877 cumulative IPC: 0.540669 (Simulation time: 0 hr 8 min 47 sec) 
Heartbeat CPU 0 instructions: 240000001 cycles: 307955140 heartbeat IPC: 0.561245 cumulative IPC: 0.542089 (Simulation time: 0 hr 9 min 10 sec) 
Heartbeat CPU 0 instructions: 250000002 cycles: 324827026 heartbeat IPC: 0.592702 cumulative IPC: 0.545192 (Simulation time: 0 hr 9 min 32 sec) 
Heartbeat CPU 0 instructions: 260000001 cycles: 340378332 heartbeat IPC: 0.643033 cumulative IPC: 0.550427 (Simulation time: 0 hr 9 min 54 sec) 
Heartbeat CPU 0 instructions: 270000001 cycles: 351908074 heartbeat IPC: 0.867322 cumulative IPC: 0.562517 (Simulation time: 0 hr 10 min 14 sec) 
Heartbeat CPU 0 instructions: 280000001 cycles: 364897506 heartbeat IPC: 0.769857 cumulative IPC: 0.571061 (Simulation time: 0 hr 10 min 36 sec) 
Heartbeat CPU 0 instructions: 290000003 cycles: 381593046 heartbeat IPC: 0.598962 cumulative IPC: 0.572465 (Simulation time: 0 hr 10 min 59 sec) 
Heartbeat CPU 0 instructions: 300000001 cycles: 405142028 heartbeat IPC: 0.424647 cumulative IPC: 0.562671 (Simulation time: 0 hr 11 min 24 sec) 
Heartbeat CPU 0 instructions: 310000001 cycles: 423993992 heartbeat IPC: 0.530449 cumulative IPC: 0.561048 (Simulation time: 0 hr 11 min 48 sec) 
Heartbeat CPU 0 instructions: 320000000 cycles: 444644736 heartbeat IPC: 0.484244 cumulative IPC: 0.557033 (Simulation time: 0 hr 12 min 13 sec) 
Heartbeat CPU 0 instructions: 330000000 cycles: 464306660 heartbeat IPC: 0.508597 cumulative IPC: 0.554736 (Simulation time: 0 hr 12 min 37 sec) 
Heartbeat CPU 0 instructions: 340000000 cycles: 482332846 heartbeat IPC: 0.554749 cumulative IPC: 0.554736 (Simulation time: 0 hr 13 min 0 sec) 
Heartbeat CPU 0 instructions: 350000001 cycles: 499328162 heartbeat IPC: 0.588398 cumulative IPC: 0.556009 (Simulation time: 0 hr 13 min 22 sec) 
Heartbeat CPU 0 instructions: 360000000 cycles: 515617137 heartbeat IPC: 0.613912 cumulative IPC: 0.558033 (Simulation time: 0 hr 13 min 44 sec) 
Heartbeat CPU 0 instructions: 370000001 cycles: 531293653 heartbeat IPC: 0.637897 cumulative IPC: 0.560633 (Simulation time: 0 hr 14 min 6 sec) 
Heartbeat CPU 0 instructions: 380000002 cycles: 542516262 heartbeat IPC: 0.891059 cumulative IPC: 0.568157 (Simulation time: 0 hr 14 min 27 sec) 
Heartbeat CPU 0 instructions: 390000001 cycles: 553618864 heartbeat IPC: 0.90069 cumulative IPC: 0.575484 (Simulation time: 0 hr 14 min 48 sec) 
Heartbeat CPU 0 instructions: 400000001 cycles: 566283623 heartbeat IPC: 0.789593 cumulative IPC: 0.580733 (Simulation time: 0 hr 15 min 9 sec) 
Heartbeat CPU 0 instructions: 410000000 cycles: 581422951 heartbeat IPC: 0.660531 cumulative IPC: 0.583005 (Simulation time: 0 hr 15 min 32 sec) 
Heartbeat CPU 0 instructions: 420000000 cycles: 603563048 heartbeat IPC: 0.451669 cumulative IPC: 0.577755 (Simulation time: 0 hr 15 min 57 sec) 
Heartbeat CPU 0 instructions: 430000003 cycles: 624010107 heartbeat IPC: 0.489068 cumulative IPC: 0.574597 (Simulation time: 0 hr 16 min 21 sec) 
Heartbeat CPU 0 instructions: 440000000 cycles: 642350019 heartbeat IPC: 0.545259 cumulative IPC: 0.573689 (Simulation time: 0 hr 16 min 44 sec) 
Heartbeat CPU 0 instructions: 450000001 cycles: 658595255 heartbeat IPC: 0.615565 cumulative IPC: 0.574807 (Simulation time: 0 hr 17 min 5 sec) 
Heartbeat CPU 0 instructions: 460000001 cycles: 672116776 heartbeat IPC: 0.739562 cumulative IPC: 0.578386 (Simulation time: 0 hr 17 min 27 sec) 
Heartbeat CPU 0 instructions: 470000001 cycles: 693318985 heartbeat IPC: 0.471649 cumulative IPC: 0.57487 (Simulation time: 0 hr 17 min 52 sec) 
Heartbeat CPU 0 instructions: 480000001 cycles: 712832703 heartbeat IPC: 0.51246 cumulative IPC: 0.573033 (Simulation time: 0 hr 18 min 15 sec) 
Heartbeat CPU 0 instructions: 490000002 cycles: 729503790 heartbeat IPC: 0.599841 cumulative IPC: 0.573691 (Simulation time: 0 hr 18 min 37 sec) 
Heartbeat CPU 0 instructions: 500000000 cycles: 749410596 heartbeat IPC: 0.502341 cumulative IPC: 0.571661 (Simulation time: 0 hr 19 min 2 sec) 
Heartbeat CPU 0 instructions: 510000000 cycles: 769857541 heartbeat IPC: 0.489071 cumulative IPC: 0.569316 (Simulation time: 0 hr 19 min 26 sec) 
Heartbeat CPU 0 instructions: 520000003 cycles: 788386092 heartbeat IPC: 0.539708 cumulative IPC: 0.568573 (Simulation time: 0 hr 19 min 50 sec) 
Heartbeat CPU 0 instructions: 530000000 cycles: 805775131 heartbeat IPC: 0.575075 cumulative IPC: 0.568723 (Simulation time: 0 hr 20 min 13 sec) 
Heartbeat CPU 0 instructions: 540000001 cycles: 822304890 heartbeat IPC: 0.60497 cumulative IPC: 0.569498 (Simulation time: 0 hr 20 min 36 sec) 
Heartbeat CPU 0 instructions: 550000000 cycles: 838188902 heartbeat IPC: 0.629564 cumulative IPC: 0.570708 (Simulation time: 0 hr 20 min 59 sec) 
Heartbeat CPU 0 instructions: 560000001 cycles: 853567918 heartbeat IPC: 0.650237 cumulative IPC: 0.57223 (Simulation time: 0 hr 21 min 21 sec) 
Heartbeat CPU 0 instructions: 570000000 cycles: 864146521 heartbeat IPC: 0.945304 cumulative IPC: 0.577075 (Simulation time: 0 hr 21 min 42 sec) 
Heartbeat CPU 0 instructions: 580000001 cycles: 874913702 heartbeat IPC: 0.928748 cumulative IPC: 0.581664 (Simulation time: 0 hr 22 min 2 sec) 
Heartbeat CPU 0 instructions: 590000001 cycles: 887084076 heartbeat IPC: 0.821667 cumulative IPC: 0.585152 (Simulation time: 0 hr 22 min 24 sec) 
Heartbeat CPU 0 instructions: 600000001 cycles: 901014841 heartbeat IPC: 0.717836 cumulative IPC: 0.587323 (Simulation time: 0 hr 22 min 45 sec) 
Heartbeat CPU 0 instructions: 610000001 cycles: 918304529 heartbeat IPC: 0.578379 cumulative IPC: 0.587145 (Simulation time: 0 hr 23 min 9 sec) 
Heartbeat CPU 0 instructions: 620000002 cycles: 941318494 heartbeat IPC: 0.434519 cumulative IPC: 0.583206 (Simulation time: 0 hr 23 min 34 sec) 
Heartbeat CPU 0 instructions: 630000002 cycles: 962659912 heartbeat IPC: 0.468572 cumulative IPC: 0.580526 (Simulation time: 0 hr 23 min 59 sec) 
Heartbeat CPU 0 instructions: 640000002 cycles: 984323759 heartbeat IPC: 0.461599 cumulative IPC: 0.577769 (Simulation time: 0 hr 24 min 25 sec) 
Heartbeat CPU 0 instructions: 650000000 cycles: 1003454977 heartbeat IPC: 0.522706 cumulative IPC: 0.576665 (Simulation time: 0 hr 24 min 48 sec) 
Heartbeat CPU 0 instructions: 660000000 cycles: 1021195896 heartbeat IPC: 0.563669 cumulative IPC: 0.576428 (Simulation time: 0 hr 25 min 11 sec) 
Heartbeat CPU 0 instructions: 670000003 cycles: 1037964681 heartbeat IPC: 0.596346 cumulative IPC: 0.576766 (Simulation time: 0 hr 25 min 33 sec) 
Heartbeat CPU 0 instructions: 680000000 cycles: 1053375238 heartbeat IPC: 0.648906 cumulative IPC: 0.577873 (Simulation time: 0 hr 25 min 54 sec) 
Heartbeat CPU 0 instructions: 690000001 cycles: 1064392788 heartbeat IPC: 0.907643 cumulative IPC: 0.581454 (Simulation time: 0 hr 26 min 15 sec) 
Heartbeat CPU 0 instructions: 700000001 cycles: 1077234158 heartbeat IPC: 0.778733 cumulative IPC: 0.583919 (Simulation time: 0 hr 26 min 36 sec) 
Heartbeat CPU 0 instructions: 710000000 cycles: 1093797757 heartbeat IPC: 0.603733 cumulative IPC: 0.584234 (Simulation time: 0 hr 26 min 59 sec) 
Heartbeat CPU 0 instructions: 720000002 cycles: 1116069412 heartbeat IPC: 0.449001 cumulative IPC: 0.581409 (Simulation time: 0 hr 27 min 25 sec) 
Heartbeat CPU 0 instructions: 730000000 cycles: 1136603123 heartbeat IPC: 0.487004 cumulative IPC: 0.579626 (Simulation time: 0 hr 27 min 50 sec) 
Heartbeat CPU 0 instructions: 740000000 cycles: 1157840827 heartbeat IPC: 0.470861 cumulative IPC: 0.577541 (Simulation time: 0 hr 28 min 16 sec) 
Heartbeat CPU 0 instructions: 750000002 cycles: 1180531762 heartbeat IPC: 0.440705 cumulative IPC: 0.574795 (Simulation time: 0 hr 28 min 43 sec) 
Heartbeat CPU 0 instructions: 760000000 cycles: 1203333248 heartbeat IPC: 0.438568 cumulative IPC: 0.572103 (Simulation time: 0 hr 29 min 10 sec) 
Heartbeat CPU 0 instructions: 770000000 cycles: 1223133158 heartbeat IPC: 0.505053 cumulative IPC: 0.570972 (Simulation time: 0 hr 29 min 35 sec) 
Heartbeat CPU 0 instructions: 780000002 cycles: 1241279858 heartbeat IPC: 0.551064 cumulative IPC: 0.570668 (Simulation time: 0 hr 29 min 58 sec) 
Heartbeat CPU 0 instructions: 790000000 cycles: 1258163709 heartbeat IPC: 0.592282 cumulative IPC: 0.57097 (Simulation time: 0 hr 30 min 21 sec) 
Heartbeat CPU 0 instructions: 800000002 cycles: 1270828463 heartbeat IPC: 0.789593 cumulative IPC: 0.573238 (Simulation time: 0 hr 30 min 43 sec) 
Heartbeat CPU 0 instructions: 810000000 cycles: 1286914305 heartbeat IPC: 0.621665 cumulative IPC: 0.573867 (Simulation time: 0 hr 31 min 7 sec) 
Heartbeat CPU 0 instructions: 820000002 cycles: 1309108504 heartbeat IPC: 0.450568 cumulative IPC: 0.571695 (Simulation time: 0 hr 31 min 33 sec) 
Heartbeat CPU 0 instructions: 830000000 cycles: 1329043931 heartbeat IPC: 0.501619 cumulative IPC: 0.570603 (Simulation time: 0 hr 32 min 0 sec) 
Heartbeat CPU 0 instructions: 840000000 cycles: 1350922001 heartbeat IPC: 0.457079 cumulative IPC: 0.568694 (Simulation time: 0 hr 32 min 26 sec) 
Heartbeat CPU 0 instructions: 850000001 cycles: 1369831327 heartbeat IPC: 0.52884 cumulative IPC: 0.568123 (Simulation time: 0 hr 32 min 51 sec) 
Heartbeat CPU 0 instructions: 860000001 cycles: 1388051183 heartbeat IPC: 0.548852 cumulative IPC: 0.567861 (Simulation time: 0 hr 33 min 16 sec) 
Heartbeat CPU 0 instructions: 870000001 cycles: 1408496977 heartbeat IPC: 0.489098 cumulative IPC: 0.566676 (Simulation time: 0 hr 33 min 42 sec) 
Heartbeat CPU 0 instructions: 880000000 cycles: 1426768746 heartbeat IPC: 0.547292 cumulative IPC: 0.566418 (Simulation time: 0 hr 34 min 5 sec) 
Heartbeat CPU 0 instructions: 890000000 cycles: 1442565437 heartbeat IPC: 0.633044 cumulative IPC: 0.567174 (Simulation time: 0 hr 34 min 29 sec) 
Heartbeat CPU 0 instructions: 900000001 cycles: 1465642290 heartbeat IPC: 0.433335 cumulative IPC: 0.564993 (Simulation time: 0 hr 34 min 56 sec) 
Heartbeat CPU 0 instructions: 910000000 cycles: 1485532996 heartbeat IPC: 0.502747 cumulative IPC: 0.56413 (Simulation time: 0 hr 35 min 22 sec) 
Heartbeat CPU 0 instructions: 920000001 cycles: 1503669986 heartbeat IPC: 0.551359 cumulative IPC: 0.563971 (Simulation time: 0 hr 35 min 45 sec) 
Heartbeat CPU 0 instructions: 930000000 cycles: 1518355753 heartbeat IPC: 0.680931 cumulative IPC: 0.565141 (Simulation time: 0 hr 36 min 7 sec) 
Heartbeat CPU 0 instructions: 940000002 cycles: 1537405810 heartbeat IPC: 0.524933 cumulative IPC: 0.564626 (Simulation time: 0 hr 36 min 33 sec) 
Heartbeat CPU 0 instructions: 950000002 cycles: 1557423919 heartbeat IPC: 0.499548 cumulative IPC: 0.563762 (Simulation time: 0 hr 36 min 58 sec) 
Heartbeat CPU 0 instructions: 960000001 cycles: 1578116181 heartbeat IPC: 0.483272 cumulative IPC: 0.562672 (Simulation time: 0 hr 37 min 25 sec) 
Heartbeat CPU 0 instructions: 970000001 cycles: 1597550592 heartbeat IPC: 0.514551 cumulative IPC: 0.562068 (Simulation time: 0 hr 37 min 49 sec) 
Heartbeat CPU 0 instructions: 980000000 cycles: 1615396693 heartbeat IPC: 0.560346 cumulative IPC: 0.562048 (Simulation time: 0 hr 38 min 13 sec) 
Heartbeat CPU 0 instructions: 990000000 cycles: 1632297986 heartbeat IPC: 0.591671 cumulative IPC: 0.562365 (Simulation time: 0 hr 38 min 36 sec) 
Heartbeat CPU 0 instructions: 1000000000 cycles: 1645188449 heartbeat IPC: 0.775767 cumulative IPC: 0.564089 (Simulation time: 0 hr 38 min 58 sec) 
Heartbeat CPU 0 instructions: 1010000001 cycles: 1658755595 heartbeat IPC: 0.737075 cumulative IPC: 0.565547 (Simulation time: 0 hr 39 min 20 sec) 
Heartbeat CPU 0 instructions: 1020000002 cycles: 1679378857 heartbeat IPC: 0.484889 cumulative IPC: 0.564527 (Simulation time: 0 hr 39 min 46 sec) 
Heartbeat CPU 0 instructions: 1030000000 cycles: 1699605432 heartbeat IPC: 0.494399 cumulative IPC: 0.563667 (Simulation time: 0 hr 40 min 11 sec) 
Heartbeat CPU 0 instructions: 1040000000 cycles: 1717362733 heartbeat IPC: 0.563149 cumulative IPC: 0.563661 (Simulation time: 0 hr 40 min 34 sec) 
Heartbeat CPU 0 instructions: 1050000000 cycles: 1734997485 heartbeat IPC: 0.567062 cumulative IPC: 0.563697 (Simulation time: 0 hr 41 min 0 sec) 
Heartbeat CPU 0 instructions: 1060000002 cycles: 1755706034 heartbeat IPC: 0.482892 cumulative IPC: 0.562716 (Simulation time: 0 hr 41 min 25 sec) 
Heartbeat CPU 0 instructions: 1070000003 cycles: 1773969559 heartbeat IPC: 0.547539 cumulative IPC: 0.562555 (Simulation time: 0 hr 41 min 48 sec) 
Heartbeat CPU 0 instructions: 1080000001 cycles: 1788892768 heartbeat IPC: 0.670097 cumulative IPC: 0.563478 (Simulation time: 0 hr 42 min 11 sec) 
Heartbeat CPU 0 instructions: 1090000001 cycles: 1810161794 heartbeat IPC: 0.470167 cumulative IPC: 0.562351 (Simulation time: 0 hr 42 min 38 sec) 
Heartbeat CPU 0 instructions: 1100000000 cycles: 1829280272 heartbeat IPC: 0.523054 cumulative IPC: 0.561929 (Simulation time: 0 hr 43 min 2 sec) 
Finished CPU 0 instructions: 1000000000 cycles: 1779585510 cumulative IPC: 0.561929 (Simulation time: 0 hr 43 min 2 sec) 

ChampSim completed all CPUs

Region of Interest Statistics

CPU 0 cumulative IPC: 0.561929 instructions: 1000000000 cycles: 1779585510
L1D TOTAL     ACCESS:  235023464  HIT:  182340530  MISS:   52682934
L1D LOAD      ACCESS:  168328094  HIT:  117316498  MISS:   51011596
L1D RFO       ACCESS:   66695370  HIT:   65024032  MISS:    1671338
L1D PREFETCH  ACCESS:          0  HIT:          0  MISS:          0
L1D WRITEBACK ACCESS:          0  HIT:          0  MISS:          0
L1D PREFETCH  REQUESTED:          0  ISSUED:          0  USEFUL:          0  USELESS:          0
L1D AVERAGE MISS LATENCY: 32.5644 cycles
L1I TOTAL     ACCESS:  218895753  HIT:  216435064  MISS:    2460689
L1I LOAD      ACCESS:  218895753  HIT:  216435064  MISS:    2460689
L1I RFO       ACCESS:          0  HIT:          0  MISS:          0
L1I PREFETCH  ACCESS:          0  HIT:          0  MISS:          0
L1I WRITEBACK ACCESS:          0  HIT:          0  MISS:          0
L1I PREFETCH  REQUESTED:          0  ISSUED:          0  USEFUL:          0  USELESS:          0
L1I AVERAGE MISS LATENCY: 18.1531 cycles
L2C TOTAL     ACCESS:   57894334  HIT:   38146455  MISS:   19747879
L2C LOAD      ACCESS:   53471621  HIT:   35068022  MISS:   18403599
L2C RFO       ACCESS:    1671287  HIT:     327170  MISS:    1344117
L2C PREFETCH  ACCESS:          0  HIT:          0  MISS:          0
L2C WRITEBACK ACCESS:    2751426  HIT:    2751263  MISS:        163
L2C PREFETCH  REQUESTED:          0  ISSUED:          0  USEFUL:          0  USELESS:          0
L2C AVERAGE MISS LATENCY: 52.2092 cycles
LLC TOTAL     ACCESS:   21568656  HIT:   20188230  MISS:    1380426
LLC LOAD      ACCESS:   18403515  HIT:   18228806  MISS:     174709
LLC RFO       ACCESS:    1344116  HIT:     301159  MISS:    1042957
LLC PREFETCH  ACCESS:          0  HIT:          0  MISS:          0
LLC WRITEBACK ACCESS:    1821025  HIT:    1658265  MISS:     162760
LLC PREFETCH  REQUESTED:          0  ISSUED:          0  USEFUL:          0  USELESS:          0
LLC AVERAGE MISS LATENCY: 142.92 cycles
Major fault: 0 Minor fault: 6208

DRAM Statistics
 CHANNEL 0
 RQ ROW_BUFFER_HIT:     567480  ROW_BUFFER_MISS:     650180
 DBUS_CONGESTED:    1057417
 WQ ROW_BUFFER_HIT:     252491  ROW_BUFFER_MISS:     892820  FULL:        536

 AVG_CONGESTED_CYCLE: 6

CPU 0 Branch Prediction Accuracy: 97.9229% MPKI: 5.94568 Average ROB Occupancy at Mispredict: 44.4199

Branch types
NOT_BRANCH: 713754972 71.3755%
BRANCH_DIRECT_JUMP: 7870399 0.78704%
BRANCH_INDIRECT: 2818396 0.28184%
BRANCH_CONDITIONAL: 244384419 24.4384%
BRANCH_DIRECT_CALL: 9876498 0.98765%
BRANCH_INDIRECT_CALL: 5709278 0.570928%
BRANCH_RETURN: 15585777 1.55858%
BRANCH_OTHER: 0 0%

