
*** ChampSim Multicore Out-of-Order Simulator ***

Warmup Instructions: 100000000
Simulation Instructions: 1000000000
Number of CPUs: 1
LLC sets: 2048
LLC ways: 16
Off-chip DRAM Size: 4096 MB Channels: 1 Width: 64-bit Data Rate: 3200 MT/s

CPU 0 runs /scratch/user/kevin.weston/dpc3-traces/623.champsimtrace.xz
CPU 0 Bimodal branch predictor
Initialize DRRIP state
Assign rand_sets[0]: 454  LLC: 2048
rand_sets[0]: 454
Assign rand_sets[1]: 1662  LLC: 2048
rand_sets[1]: 1662
Assign rand_sets[2]: 1921  LLC: 2048
rand_sets[2]: 1921
Assign rand_sets[3]: 1131  LLC: 2048
rand_sets[3]: 1131
Assign rand_sets[4]: 331  LLC: 2048
rand_sets[4]: 331
Assign rand_sets[5]: 1531  LLC: 2048
rand_sets[5]: 1531
Assign rand_sets[6]: 482  LLC: 2048
rand_sets[6]: 482
Assign rand_sets[7]: 1275  LLC: 2048
rand_sets[7]: 1275
Assign rand_sets[8]: 1876  LLC: 2048
rand_sets[8]: 1876
Assign rand_sets[9]: 2038  LLC: 2048
rand_sets[9]: 2038
Assign rand_sets[10]: 701  LLC: 2048
rand_sets[10]: 701
Assign rand_sets[11]: 479  LLC: 2048
rand_sets[11]: 479
Assign rand_sets[12]: 892  LLC: 2048
rand_sets[12]: 892
Assign rand_sets[13]: 1820  LLC: 2048
rand_sets[13]: 1820
Assign rand_sets[14]: 1505  LLC: 2048
rand_sets[14]: 1505
Assign rand_sets[15]: 1159  LLC: 2048
rand_sets[15]: 1159
Assign rand_sets[16]: 513  LLC: 2048
rand_sets[16]: 513
Assign rand_sets[17]: 703  LLC: 2048
rand_sets[17]: 703
Assign rand_sets[18]: 561  LLC: 2048
rand_sets[18]: 561
Assign rand_sets[19]: 990  LLC: 2048
rand_sets[19]: 990
Assign rand_sets[20]: 342  LLC: 2048
rand_sets[20]: 342
Assign rand_sets[21]: 882  LLC: 2048
rand_sets[21]: 882
Assign rand_sets[22]: 15  LLC: 2048
rand_sets[22]: 15
Assign rand_sets[23]: 71  LLC: 2048
rand_sets[23]: 71
Assign rand_sets[24]: 1127  LLC: 2048
rand_sets[24]: 1127
Assign rand_sets[25]: 1382  LLC: 2048
rand_sets[25]: 1382
Assign rand_sets[26]: 647  LLC: 2048
rand_sets[26]: 647
Assign rand_sets[27]: 857  LLC: 2048
rand_sets[27]: 857
Assign rand_sets[28]: 1450  LLC: 2048
rand_sets[28]: 1450
Assign rand_sets[29]: 1160  LLC: 2048
rand_sets[29]: 1160
Assign rand_sets[30]: 1852  LLC: 2048
rand_sets[30]: 1852
Assign rand_sets[31]: 1881  LLC: 2048
rand_sets[31]: 1881
Assign rand_sets[32]: 1770  LLC: 2048
rand_sets[32]: 1770
Assign rand_sets[33]: 1622  LLC: 2048
rand_sets[33]: 1622
Assign rand_sets[34]: 275  LLC: 2048
rand_sets[34]: 275
Assign rand_sets[35]: 635  LLC: 2048
rand_sets[35]: 635
Assign rand_sets[36]: 466  LLC: 2048
rand_sets[36]: 466
Assign rand_sets[37]: 1413  LLC: 2048
rand_sets[37]: 1413
Assign rand_sets[38]: 417  LLC: 2048
rand_sets[38]: 417
Assign rand_sets[39]: 472  LLC: 2048
rand_sets[39]: 472
Assign rand_sets[40]: 1340  LLC: 2048
rand_sets[40]: 1340
Assign rand_sets[41]: 852  LLC: 2048
rand_sets[41]: 852
Assign rand_sets[42]: 1365  LLC: 2048
rand_sets[42]: 1365
Assign rand_sets[43]: 47  LLC: 2048
rand_sets[43]: 47
Assign rand_sets[44]: 823  LLC: 2048
rand_sets[44]: 823
Assign rand_sets[45]: 686  LLC: 2048
rand_sets[45]: 686
Assign rand_sets[46]: 1637  LLC: 2048
rand_sets[46]: 1637
Assign rand_sets[47]: 1115  LLC: 2048
rand_sets[47]: 1115
Assign rand_sets[48]: 986  LLC: 2048
rand_sets[48]: 986
Assign rand_sets[49]: 258  LLC: 2048
rand_sets[49]: 258
Assign rand_sets[50]: 633  LLC: 2048
rand_sets[50]: 633
Assign rand_sets[51]: 920  LLC: 2048
rand_sets[51]: 920
Assign rand_sets[52]: 204  LLC: 2048
rand_sets[52]: 204
Assign rand_sets[53]: 227  LLC: 2048
rand_sets[53]: 227
Assign rand_sets[54]: 1818  LLC: 2048
rand_sets[54]: 1818
Assign rand_sets[55]: 886  LLC: 2048
rand_sets[55]: 886
Assign rand_sets[56]: 1422  LLC: 2048
rand_sets[56]: 1422
Assign rand_sets[57]: 607  LLC: 2048
rand_sets[57]: 607
Assign rand_sets[58]: 217  LLC: 2048
rand_sets[58]: 217
Assign rand_sets[59]: 1945  LLC: 2048
rand_sets[59]: 1945
Assign rand_sets[60]: 143  LLC: 2048
rand_sets[60]: 143
Assign rand_sets[61]: 1311  LLC: 2048
rand_sets[61]: 1311
Assign rand_sets[62]: 319  LLC: 2048
rand_sets[62]: 319
Assign rand_sets[63]: 1846  LLC: 2048
rand_sets[63]: 1846
Heartbeat CPU 0 instructions: 10000002 cycles: 5065899 heartbeat IPC: 1.97398 cumulative IPC: 1.97398 (Simulation time: 0 hr 0 min 22 sec) 
Heartbeat CPU 0 instructions: 20000001 cycles: 9509046 heartbeat IPC: 2.25066 cumulative IPC: 2.10326 (Simulation time: 0 hr 0 min 43 sec) 
Heartbeat CPU 0 instructions: 30000000 cycles: 14620124 heartbeat IPC: 1.95653 cumulative IPC: 2.05197 (Simulation time: 0 hr 1 min 5 sec) 
Heartbeat CPU 0 instructions: 40000002 cycles: 19905304 heartbeat IPC: 1.89208 cumulative IPC: 2.00951 (Simulation time: 0 hr 1 min 29 sec) 
Heartbeat CPU 0 instructions: 50000002 cycles: 25095800 heartbeat IPC: 1.9266 cumulative IPC: 1.99237 (Simulation time: 0 hr 1 min 52 sec) 
Heartbeat CPU 0 instructions: 60000003 cycles: 29632116 heartbeat IPC: 2.20443 cumulative IPC: 2.02483 (Simulation time: 0 hr 2 min 13 sec) 
Heartbeat CPU 0 instructions: 70000002 cycles: 34082252 heartbeat IPC: 2.24712 cumulative IPC: 2.05385 (Simulation time: 0 hr 2 min 34 sec) 
Heartbeat CPU 0 instructions: 80000000 cycles: 39306787 heartbeat IPC: 1.91405 cumulative IPC: 2.03527 (Simulation time: 0 hr 2 min 57 sec) 
Heartbeat CPU 0 instructions: 90000000 cycles: 44406718 heartbeat IPC: 1.96081 cumulative IPC: 2.02672 (Simulation time: 0 hr 3 min 21 sec) 
Heartbeat CPU 0 instructions: 100000001 cycles: 49693643 heartbeat IPC: 1.89146 cumulative IPC: 2.01233 (Simulation time: 0 hr 3 min 44 sec) 

Warmup complete CPU 0 instructions: 100000001 cycles: 49693643 (Simulation time: 0 hr 3 min 44 sec) 

Heartbeat CPU 0 instructions: 110000000 cycles: 69025069 heartbeat IPC: 0.517292 cumulative IPC: 0.517292 (Simulation time: 0 hr 4 min 7 sec) 
Heartbeat CPU 0 instructions: 120000003 cycles: 86784165 heartbeat IPC: 0.563092 cumulative IPC: 0.539221 (Simulation time: 0 hr 4 min 28 sec) 
Heartbeat CPU 0 instructions: 130000000 cycles: 101009608 heartbeat IPC: 0.702966 cumulative IPC: 0.584613 (Simulation time: 0 hr 4 min 49 sec) 
Heartbeat CPU 0 instructions: 140000000 cycles: 118950416 heartbeat IPC: 0.557388 cumulative IPC: 0.577561 (Simulation time: 0 hr 5 min 12 sec) 
Heartbeat CPU 0 instructions: 150000000 cycles: 140368387 heartbeat IPC: 0.466898 cumulative IPC: 0.551421 (Simulation time: 0 hr 5 min 35 sec) 
Heartbeat CPU 0 instructions: 160000000 cycles: 160318529 heartbeat IPC: 0.50125 cumulative IPC: 0.542373 (Simulation time: 0 hr 5 min 59 sec) 
Heartbeat CPU 0 instructions: 170000000 cycles: 181632106 heartbeat IPC: 0.469184 cumulative IPC: 0.53055 (Simulation time: 0 hr 6 min 24 sec) 
Heartbeat CPU 0 instructions: 180000001 cycles: 201382807 heartbeat IPC: 0.506311 cumulative IPC: 0.527394 (Simulation time: 0 hr 6 min 46 sec) 
Heartbeat CPU 0 instructions: 190000002 cycles: 219361007 heartbeat IPC: 0.556229 cumulative IPC: 0.53045 (Simulation time: 0 hr 7 min 8 sec) 
Heartbeat CPU 0 instructions: 200000002 cycles: 234638691 heartbeat IPC: 0.654549 cumulative IPC: 0.540701 (Simulation time: 0 hr 7 min 29 sec) 
Heartbeat CPU 0 instructions: 210000001 cycles: 249268107 heartbeat IPC: 0.683554 cumulative IPC: 0.551173 (Simulation time: 0 hr 7 min 50 sec) 
Heartbeat CPU 0 instructions: 220000000 cycles: 271271223 heartbeat IPC: 0.454481 cumulative IPC: 0.541571 (Simulation time: 0 hr 8 min 15 sec) 
Heartbeat CPU 0 instructions: 230000001 cycles: 290624762 heartbeat IPC: 0.516701 cumulative IPC: 0.539573 (Simulation time: 0 hr 8 min 38 sec) 
Heartbeat CPU 0 instructions: 240000001 cycles: 308403538 heartbeat IPC: 0.562468 cumulative IPC: 0.541147 (Simulation time: 0 hr 8 min 59 sec) 
Heartbeat CPU 0 instructions: 250000002 cycles: 325187205 heartbeat IPC: 0.595817 cumulative IPC: 0.544477 (Simulation time: 0 hr 9 min 21 sec) 
Heartbeat CPU 0 instructions: 260000001 cycles: 340682647 heartbeat IPC: 0.645351 cumulative IPC: 0.549849 (Simulation time: 0 hr 9 min 42 sec) 
Heartbeat CPU 0 instructions: 270000001 cycles: 352241662 heartbeat IPC: 0.865126 cumulative IPC: 0.561894 (Simulation time: 0 hr 10 min 3 sec) 
Heartbeat CPU 0 instructions: 280000001 cycles: 365506889 heartbeat IPC: 0.753851 cumulative IPC: 0.569957 (Simulation time: 0 hr 10 min 24 sec) 
Heartbeat CPU 0 instructions: 290000003 cycles: 382555566 heartbeat IPC: 0.586556 cumulative IPC: 0.570807 (Simulation time: 0 hr 10 min 46 sec) 
Heartbeat CPU 0 instructions: 300000001 cycles: 406243897 heartbeat IPC: 0.422149 cumulative IPC: 0.560931 (Simulation time: 0 hr 11 min 11 sec) 
Heartbeat CPU 0 instructions: 310000001 cycles: 425142907 heartbeat IPC: 0.529128 cumulative IPC: 0.55933 (Simulation time: 0 hr 11 min 34 sec) 
Heartbeat CPU 0 instructions: 320000000 cycles: 445855189 heartbeat IPC: 0.482805 cumulative IPC: 0.555329 (Simulation time: 0 hr 11 min 58 sec) 
Heartbeat CPU 0 instructions: 330000000 cycles: 465515226 heartbeat IPC: 0.508646 cumulative IPC: 0.553122 (Simulation time: 0 hr 12 min 21 sec) 
Heartbeat CPU 0 instructions: 340000000 cycles: 483462865 heartbeat IPC: 0.557176 cumulative IPC: 0.55329 (Simulation time: 0 hr 12 min 43 sec) 
Heartbeat CPU 0 instructions: 350000003 cycles: 500362700 heartbeat IPC: 0.591722 cumulative IPC: 0.554731 (Simulation time: 0 hr 13 min 5 sec) 
Heartbeat CPU 0 instructions: 360000000 cycles: 516579049 heartbeat IPC: 0.616661 cumulative IPC: 0.556882 (Simulation time: 0 hr 13 min 26 sec) 
Heartbeat CPU 0 instructions: 370000001 cycles: 532183199 heartbeat IPC: 0.640855 cumulative IPC: 0.559598 (Simulation time: 0 hr 13 min 47 sec) 
Heartbeat CPU 0 instructions: 380000002 cycles: 543451318 heartbeat IPC: 0.88746 cumulative IPC: 0.56708 (Simulation time: 0 hr 14 min 8 sec) 
Heartbeat CPU 0 instructions: 390000001 cycles: 554829998 heartbeat IPC: 0.878836 cumulative IPC: 0.574102 (Simulation time: 0 hr 14 min 29 sec) 
Heartbeat CPU 0 instructions: 400000001 cycles: 567677056 heartbeat IPC: 0.778388 cumulative IPC: 0.579169 (Simulation time: 0 hr 14 min 50 sec) 
Heartbeat CPU 0 instructions: 410000000 cycles: 582941946 heartbeat IPC: 0.655098 cumulative IPC: 0.581343 (Simulation time: 0 hr 15 min 12 sec) 
Heartbeat CPU 0 instructions: 420000000 cycles: 605213460 heartbeat IPC: 0.449004 cumulative IPC: 0.576037 (Simulation time: 0 hr 15 min 36 sec) 
Heartbeat CPU 0 instructions: 430000003 cycles: 625613375 heartbeat IPC: 0.490198 cumulative IPC: 0.572996 (Simulation time: 0 hr 16 min 0 sec) 
Heartbeat CPU 0 instructions: 440000000 cycles: 643904807 heartbeat IPC: 0.546704 cumulative IPC: 0.572187 (Simulation time: 0 hr 16 min 22 sec) 
Heartbeat CPU 0 instructions: 450000001 cycles: 660214989 heartbeat IPC: 0.613114 cumulative IPC: 0.573281 (Simulation time: 0 hr 16 min 43 sec) 
Heartbeat CPU 0 instructions: 460000001 cycles: 673934346 heartbeat IPC: 0.728897 cumulative IPC: 0.576701 (Simulation time: 0 hr 17 min 4 sec) 
Heartbeat CPU 0 instructions: 470000001 cycles: 695869335 heartbeat IPC: 0.455893 cumulative IPC: 0.5726 (Simulation time: 0 hr 17 min 28 sec) 
Heartbeat CPU 0 instructions: 480000001 cycles: 715358303 heartbeat IPC: 0.513111 cumulative IPC: 0.570858 (Simulation time: 0 hr 17 min 51 sec) 
Heartbeat CPU 0 instructions: 490000002 cycles: 732032466 heartbeat IPC: 0.59973 cumulative IPC: 0.571564 (Simulation time: 0 hr 18 min 12 sec) 
Heartbeat CPU 0 instructions: 500000000 cycles: 752249565 heartbeat IPC: 0.494631 cumulative IPC: 0.56935 (Simulation time: 0 hr 18 min 37 sec) 
Heartbeat CPU 0 instructions: 510000000 cycles: 772686147 heartbeat IPC: 0.489319 cumulative IPC: 0.567087 (Simulation time: 0 hr 19 min 0 sec) 
Heartbeat CPU 0 instructions: 520000003 cycles: 791135876 heartbeat IPC: 0.542014 cumulative IPC: 0.566464 (Simulation time: 0 hr 19 min 23 sec) 
Heartbeat CPU 0 instructions: 530000000 cycles: 808404991 heartbeat IPC: 0.579068 cumulative IPC: 0.56675 (Simulation time: 0 hr 19 min 45 sec) 
Heartbeat CPU 0 instructions: 540000001 cycles: 824828348 heartbeat IPC: 0.608889 cumulative IPC: 0.567643 (Simulation time: 0 hr 20 min 6 sec) 
Heartbeat CPU 0 instructions: 550000000 cycles: 840627498 heartbeat IPC: 0.632945 cumulative IPC: 0.568948 (Simulation time: 0 hr 20 min 27 sec) 
Heartbeat CPU 0 instructions: 560000001 cycles: 855965648 heartbeat IPC: 0.651969 cumulative IPC: 0.570527 (Simulation time: 0 hr 20 min 49 sec) 
Heartbeat CPU 0 instructions: 570000000 cycles: 866594166 heartbeat IPC: 0.940865 cumulative IPC: 0.575345 (Simulation time: 0 hr 21 min 9 sec) 
Heartbeat CPU 0 instructions: 580000001 cycles: 877609288 heartbeat IPC: 0.907843 cumulative IPC: 0.579769 (Simulation time: 0 hr 21 min 30 sec) 
Heartbeat CPU 0 instructions: 590000001 cycles: 889941695 heartbeat IPC: 0.810872 cumulative IPC: 0.583161 (Simulation time: 0 hr 21 min 51 sec) 
Heartbeat CPU 0 instructions: 600000001 cycles: 903924360 heartbeat IPC: 0.715171 cumulative IPC: 0.585322 (Simulation time: 0 hr 22 min 13 sec) 
Heartbeat CPU 0 instructions: 610000001 cycles: 921249657 heartbeat IPC: 0.577191 cumulative IPC: 0.58516 (Simulation time: 0 hr 22 min 35 sec) 
Heartbeat CPU 0 instructions: 620000002 cycles: 944283050 heartbeat IPC: 0.434152 cumulative IPC: 0.581272 (Simulation time: 0 hr 23 min 0 sec) 
Heartbeat CPU 0 instructions: 630000002 cycles: 965628915 heartbeat IPC: 0.468475 cumulative IPC: 0.578644 (Simulation time: 0 hr 23 min 24 sec) 
Heartbeat CPU 0 instructions: 640000002 cycles: 987260795 heartbeat IPC: 0.462281 cumulative IPC: 0.575959 (Simulation time: 0 hr 23 min 48 sec) 
Heartbeat CPU 0 instructions: 650000000 cycles: 1006351076 heartbeat IPC: 0.523827 cumulative IPC: 0.574918 (Simulation time: 0 hr 24 min 11 sec) 
Heartbeat CPU 0 instructions: 660000000 cycles: 1024023689 heartbeat IPC: 0.565847 cumulative IPC: 0.574754 (Simulation time: 0 hr 24 min 32 sec) 
Heartbeat CPU 0 instructions: 670000003 cycles: 1040683219 heartbeat IPC: 0.600257 cumulative IPC: 0.575183 (Simulation time: 0 hr 24 min 54 sec) 
Heartbeat CPU 0 instructions: 680000000 cycles: 1056072337 heartbeat IPC: 0.64981 cumulative IPC: 0.576324 (Simulation time: 0 hr 25 min 15 sec) 
Heartbeat CPU 0 instructions: 690000001 cycles: 1067074401 heartbeat IPC: 0.90892 cumulative IPC: 0.579921 (Simulation time: 0 hr 25 min 35 sec) 
Heartbeat CPU 0 instructions: 700000001 cycles: 1080111653 heartbeat IPC: 0.767033 cumulative IPC: 0.582288 (Simulation time: 0 hr 25 min 56 sec) 
Heartbeat CPU 0 instructions: 710000000 cycles: 1096818167 heartbeat IPC: 0.598569 cumulative IPC: 0.582548 (Simulation time: 0 hr 26 min 19 sec) 
Heartbeat CPU 0 instructions: 720000002 cycles: 1119155469 heartbeat IPC: 0.447682 cumulative IPC: 0.579731 (Simulation time: 0 hr 26 min 43 sec) 
Heartbeat CPU 0 instructions: 730000000 cycles: 1139723708 heartbeat IPC: 0.486186 cumulative IPC: 0.577966 (Simulation time: 0 hr 27 min 8 sec) 
Heartbeat CPU 0 instructions: 740000000 cycles: 1160978588 heartbeat IPC: 0.47048 cumulative IPC: 0.57591 (Simulation time: 0 hr 27 min 33 sec) 
Heartbeat CPU 0 instructions: 750000002 cycles: 1183656413 heartbeat IPC: 0.440959 cumulative IPC: 0.573211 (Simulation time: 0 hr 27 min 58 sec) 
Heartbeat CPU 0 instructions: 760000000 cycles: 1206454024 heartbeat IPC: 0.438642 cumulative IPC: 0.570559 (Simulation time: 0 hr 28 min 24 sec) 
Heartbeat CPU 0 instructions: 770000000 cycles: 1226216806 heartbeat IPC: 0.506002 cumulative IPC: 0.569475 (Simulation time: 0 hr 28 min 47 sec) 
Heartbeat CPU 0 instructions: 780000002 cycles: 1244313870 heartbeat IPC: 0.552576 cumulative IPC: 0.569219 (Simulation time: 0 hr 29 min 10 sec) 
Heartbeat CPU 0 instructions: 790000000 cycles: 1261154679 heartbeat IPC: 0.593796 cumulative IPC: 0.56956 (Simulation time: 0 hr 29 min 32 sec) 
Heartbeat CPU 0 instructions: 800000002 cycles: 1273805318 heartbeat IPC: 0.790474 cumulative IPC: 0.571843 (Simulation time: 0 hr 29 min 53 sec) 
Heartbeat CPU 0 instructions: 810000000 cycles: 1290371258 heartbeat IPC: 0.603648 cumulative IPC: 0.572268 (Simulation time: 0 hr 30 min 17 sec) 
Heartbeat CPU 0 instructions: 820000002 cycles: 1312689054 heartbeat IPC: 0.448073 cumulative IPC: 0.570073 (Simulation time: 0 hr 30 min 42 sec) 
Heartbeat CPU 0 instructions: 830000000 cycles: 1332673820 heartbeat IPC: 0.500381 cumulative IPC: 0.568988 (Simulation time: 0 hr 31 min 7 sec) 
Heartbeat CPU 0 instructions: 840000000 cycles: 1354505598 heartbeat IPC: 0.458048 cumulative IPC: 0.567132 (Simulation time: 0 hr 31 min 32 sec) 
Heartbeat CPU 0 instructions: 850000001 cycles: 1373399162 heartbeat IPC: 0.529281 cumulative IPC: 0.566591 (Simulation time: 0 hr 31 min 54 sec) 
Heartbeat CPU 0 instructions: 860000001 cycles: 1391696762 heartbeat IPC: 0.54652 cumulative IPC: 0.566318 (Simulation time: 0 hr 32 min 19 sec) 
Heartbeat CPU 0 instructions: 870000001 cycles: 1412087760 heartbeat IPC: 0.490412 cumulative IPC: 0.565182 (Simulation time: 0 hr 32 min 43 sec) 
Heartbeat CPU 0 instructions: 880000000 cycles: 1430325631 heartbeat IPC: 0.54831 cumulative IPC: 0.564959 (Simulation time: 0 hr 33 min 5 sec) 
Heartbeat CPU 0 instructions: 890000000 cycles: 1446241213 heartbeat IPC: 0.628315 cumulative IPC: 0.565681 (Simulation time: 0 hr 33 min 28 sec) 
Heartbeat CPU 0 instructions: 900000001 cycles: 1469510384 heartbeat IPC: 0.429753 cumulative IPC: 0.563453 (Simulation time: 0 hr 33 min 54 sec) 
Heartbeat CPU 0 instructions: 910000000 cycles: 1489360202 heartbeat IPC: 0.503783 cumulative IPC: 0.56263 (Simulation time: 0 hr 34 min 17 sec) 
Heartbeat CPU 0 instructions: 920000001 cycles: 1507451428 heartbeat IPC: 0.552754 cumulative IPC: 0.562508 (Simulation time: 0 hr 34 min 40 sec) 
Heartbeat CPU 0 instructions: 930000000 cycles: 1522107570 heartbeat IPC: 0.682308 cumulative IPC: 0.5637 (Simulation time: 0 hr 35 min 1 sec) 
Heartbeat CPU 0 instructions: 940000002 cycles: 1541570084 heartbeat IPC: 0.513808 cumulative IPC: 0.563049 (Simulation time: 0 hr 35 min 26 sec) 
Heartbeat CPU 0 instructions: 950000001 cycles: 1561615976 heartbeat IPC: 0.498855 cumulative IPC: 0.562198 (Simulation time: 0 hr 35 min 49 sec) 
Heartbeat CPU 0 instructions: 960000001 cycles: 1582305042 heartbeat IPC: 0.483347 cumulative IPC: 0.561134 (Simulation time: 0 hr 36 min 15 sec) 
Heartbeat CPU 0 instructions: 970000001 cycles: 1601702719 heartbeat IPC: 0.515526 cumulative IPC: 0.560564 (Simulation time: 0 hr 36 min 38 sec) 
Heartbeat CPU 0 instructions: 980000000 cycles: 1619484230 heartbeat IPC: 0.562382 cumulative IPC: 0.560584 (Simulation time: 0 hr 37 min 0 sec) 
Heartbeat CPU 0 instructions: 990000000 cycles: 1636288483 heartbeat IPC: 0.595087 cumulative IPC: 0.56095 (Simulation time: 0 hr 37 min 22 sec) 
Heartbeat CPU 0 instructions: 1000000003 cycles: 1649117949 heartbeat IPC: 0.779456 cumulative IPC: 0.562702 (Simulation time: 0 hr 37 min 43 sec) 
Heartbeat CPU 0 instructions: 1010000001 cycles: 1663009936 heartbeat IPC: 0.719839 cumulative IPC: 0.564056 (Simulation time: 0 hr 38 min 5 sec) 
Heartbeat CPU 0 instructions: 1020000002 cycles: 1683965474 heartbeat IPC: 0.477201 cumulative IPC: 0.562942 (Simulation time: 0 hr 38 min 30 sec) 
Heartbeat CPU 0 instructions: 1030000000 cycles: 1704149525 heartbeat IPC: 0.495441 cumulative IPC: 0.562118 (Simulation time: 0 hr 38 min 54 sec) 
Heartbeat CPU 0 instructions: 1040000000 cycles: 1721902328 heartbeat IPC: 0.563291 cumulative IPC: 0.562131 (Simulation time: 0 hr 39 min 16 sec) 
Heartbeat CPU 0 instructions: 1050000000 cycles: 1739799833 heartbeat IPC: 0.558737 cumulative IPC: 0.562095 (Simulation time: 0 hr 39 min 40 sec) 
Heartbeat CPU 0 instructions: 1060000002 cycles: 1760512012 heartbeat IPC: 0.482808 cumulative IPC: 0.561135 (Simulation time: 0 hr 40 min 4 sec) 
Heartbeat CPU 0 instructions: 1070000003 cycles: 1778737875 heartbeat IPC: 0.548671 cumulative IPC: 0.561004 (Simulation time: 0 hr 40 min 26 sec) 
Heartbeat CPU 0 instructions: 1080000001 cycles: 1793679925 heartbeat IPC: 0.669252 cumulative IPC: 0.561931 (Simulation time: 0 hr 40 min 48 sec) 
Heartbeat CPU 0 instructions: 1090000001 cycles: 1815184557 heartbeat IPC: 0.465016 cumulative IPC: 0.560751 (Simulation time: 0 hr 41 min 13 sec) 
Heartbeat CPU 0 instructions: 1100000000 cycles: 1834273957 heartbeat IPC: 0.523851 cumulative IPC: 0.560356 (Simulation time: 0 hr 41 min 36 sec) 
Finished CPU 0 instructions: 1000000000 cycles: 1784580315 cumulative IPC: 0.560356 (Simulation time: 0 hr 41 min 36 sec) 

ChampSim completed all CPUs

Region of Interest Statistics

CPU 0 cumulative IPC: 0.560356 instructions: 1000000000 cycles: 1784580315
L1D TOTAL     ACCESS:  235136813  HIT:  182442560  MISS:   52694253
L1D LOAD      ACCESS:  168401000  HIT:  117378064  MISS:   51022936
L1D RFO       ACCESS:   66735813  HIT:   65064496  MISS:    1671317
L1D PREFETCH  ACCESS:          0  HIT:          0  MISS:          0
L1D WRITEBACK ACCESS:          0  HIT:          0  MISS:          0
L1D PREFETCH  REQUESTED:          0  ISSUED:          0  USEFUL:          0  USELESS:          0
L1D AVERAGE MISS LATENCY: 32.6057 cycles
L1I TOTAL     ACCESS:  218852193  HIT:  216391504  MISS:    2460689
L1I LOAD      ACCESS:  218852193  HIT:  216391504  MISS:    2460689
L1I RFO       ACCESS:          0  HIT:          0  MISS:          0
L1I PREFETCH  ACCESS:          0  HIT:          0  MISS:          0
L1I WRITEBACK ACCESS:          0  HIT:          0  MISS:          0
L1I PREFETCH  REQUESTED:          0  ISSUED:          0  USEFUL:          0  USELESS:          0
L1I AVERAGE MISS LATENCY: 19.2199 cycles
L2C TOTAL     ACCESS:   57905605  HIT:   38327288  MISS:   19578317
L2C LOAD      ACCESS:   53482976  HIT:   35257432  MISS:   18225544
L2C RFO       ACCESS:    1671266  HIT:     318720  MISS:    1352546
L2C PREFETCH  ACCESS:          0  HIT:          0  MISS:          0
L2C WRITEBACK ACCESS:    2751363  HIT:    2751136  MISS:        227
L2C PREFETCH  REQUESTED:          0  ISSUED:          0  USEFUL:          0  USELESS:          0
L2C AVERAGE MISS LATENCY: 53.0413 cycles
LLC TOTAL     ACCESS:   21430304  HIT:   20145825  MISS:    1284479
LLC LOAD      ACCESS:   18225476  HIT:   18012325  MISS:     213151
LLC RFO       ACCESS:    1352546  HIT:     286763  MISS:    1065783
LLC PREFETCH  ACCESS:          0  HIT:          0  MISS:          0
LLC WRITEBACK ACCESS:    1852282  HIT:    1846737  MISS:       5545
LLC PREFETCH  REQUESTED:          0  ISSUED:          0  USEFUL:          0  USELESS:          0
LLC AVERAGE MISS LATENCY: 162.935 cycles
Major fault: 0 Minor fault: 6208

DRAM Statistics
 CHANNEL 0
 RQ ROW_BUFFER_HIT:     573331  ROW_BUFFER_MISS:     705595
 DBUS_CONGESTED:    1062727
 WQ ROW_BUFFER_HIT:     175130  ROW_BUFFER_MISS:    1031838  FULL:          0

 AVG_CONGESTED_CYCLE: 6

CPU 0 Branch Prediction Accuracy: 97.9229% MPKI: 5.94568 Average ROB Occupancy at Mispredict: 44.2862

Branch types
NOT_BRANCH: 713754972 71.3755%
BRANCH_DIRECT_JUMP: 7870399 0.78704%
BRANCH_INDIRECT: 2818396 0.28184%
BRANCH_CONDITIONAL: 244384419 24.4384%
BRANCH_DIRECT_CALL: 9876498 0.98765%
BRANCH_INDIRECT_CALL: 5709278 0.570928%
BRANCH_RETURN: 15585777 1.55858%
BRANCH_OTHER: 0 0%

