
*** ChampSim Multicore Out-of-Order Simulator ***

Warmup Instructions: 100000000
Simulation Instructions: 1000000000
Number of CPUs: 1
LLC sets: 2048
LLC ways: 16
Off-chip DRAM Size: 4096 MB Channels: 1 Width: 64-bit Data Rate: 3200 MT/s

CPU 0 runs /scratch/user/kevin.weston/dpc3-traces/623.champsimtrace.xz
CPU 0 Bimodal branch predictor
Per-line RRPV Initialized
PRRIP State Initialized
Assign SAMPLER_SET[0]: 454  LLC: 2048
SAMPLER_SET[0]: 454
Assign SAMPLER_SET[1]: 1662  LLC: 2048
SAMPLER_SET[1]: 1662
Assign SAMPLER_SET[2]: 1921  LLC: 2048
SAMPLER_SET[2]: 1921
Assign SAMPLER_SET[3]: 1131  LLC: 2048
SAMPLER_SET[3]: 1131
Assign SAMPLER_SET[4]: 331  LLC: 2048
SAMPLER_SET[4]: 331
Assign SAMPLER_SET[5]: 1531  LLC: 2048
SAMPLER_SET[5]: 1531
Assign SAMPLER_SET[6]: 482  LLC: 2048
SAMPLER_SET[6]: 482
Assign SAMPLER_SET[7]: 1275  LLC: 2048
SAMPLER_SET[7]: 1275
Assign SAMPLER_SET[8]: 1876  LLC: 2048
SAMPLER_SET[8]: 1876
Assign SAMPLER_SET[9]: 2038  LLC: 2048
SAMPLER_SET[9]: 2038
Assign SAMPLER_SET[10]: 701  LLC: 2048
SAMPLER_SET[10]: 701
Assign SAMPLER_SET[11]: 479  LLC: 2048
SAMPLER_SET[11]: 479
Assign SAMPLER_SET[12]: 892  LLC: 2048
SAMPLER_SET[12]: 892
Assign SAMPLER_SET[13]: 1820  LLC: 2048
SAMPLER_SET[13]: 1820
Assign SAMPLER_SET[14]: 1505  LLC: 2048
SAMPLER_SET[14]: 1505
Assign SAMPLER_SET[15]: 1159  LLC: 2048
SAMPLER_SET[15]: 1159
Assign SAMPLER_SET[16]: 513  LLC: 2048
SAMPLER_SET[16]: 513
Assign SAMPLER_SET[17]: 703  LLC: 2048
SAMPLER_SET[17]: 703
Assign SAMPLER_SET[18]: 561  LLC: 2048
SAMPLER_SET[18]: 561
Assign SAMPLER_SET[19]: 990  LLC: 2048
SAMPLER_SET[19]: 990
Assign SAMPLER_SET[20]: 342  LLC: 2048
SAMPLER_SET[20]: 342
Assign SAMPLER_SET[21]: 882  LLC: 2048
SAMPLER_SET[21]: 882
Assign SAMPLER_SET[22]: 15  LLC: 2048
SAMPLER_SET[22]: 15
Assign SAMPLER_SET[23]: 71  LLC: 2048
SAMPLER_SET[23]: 71
Assign SAMPLER_SET[24]: 1127  LLC: 2048
SAMPLER_SET[24]: 1127
Assign SAMPLER_SET[25]: 1382  LLC: 2048
SAMPLER_SET[25]: 1382
Assign SAMPLER_SET[26]: 647  LLC: 2048
SAMPLER_SET[26]: 647
Assign SAMPLER_SET[27]: 857  LLC: 2048
SAMPLER_SET[27]: 857
Assign SAMPLER_SET[28]: 1450  LLC: 2048
SAMPLER_SET[28]: 1450
Assign SAMPLER_SET[29]: 1160  LLC: 2048
SAMPLER_SET[29]: 1160
Assign SAMPLER_SET[30]: 1852  LLC: 2048
SAMPLER_SET[30]: 1852
Assign SAMPLER_SET[31]: 1881  LLC: 2048
SAMPLER_SET[31]: 1881
Assign SAMPLER_SET[32]: 1770  LLC: 2048
SAMPLER_SET[32]: 1770
Assign SAMPLER_SET[33]: 1622  LLC: 2048
SAMPLER_SET[33]: 1622
Assign SAMPLER_SET[34]: 275  LLC: 2048
SAMPLER_SET[34]: 275
Assign SAMPLER_SET[35]: 635  LLC: 2048
SAMPLER_SET[35]: 635
Assign SAMPLER_SET[36]: 466  LLC: 2048
SAMPLER_SET[36]: 466
Assign SAMPLER_SET[37]: 1413  LLC: 2048
SAMPLER_SET[37]: 1413
Assign SAMPLER_SET[38]: 417  LLC: 2048
SAMPLER_SET[38]: 417
Assign SAMPLER_SET[39]: 472  LLC: 2048
SAMPLER_SET[39]: 472
Assign SAMPLER_SET[40]: 1340  LLC: 2048
SAMPLER_SET[40]: 1340
Assign SAMPLER_SET[41]: 852  LLC: 2048
SAMPLER_SET[41]: 852
Assign SAMPLER_SET[42]: 1365  LLC: 2048
SAMPLER_SET[42]: 1365
Assign SAMPLER_SET[43]: 47  LLC: 2048
SAMPLER_SET[43]: 47
Assign SAMPLER_SET[44]: 823  LLC: 2048
SAMPLER_SET[44]: 823
Assign SAMPLER_SET[45]: 686  LLC: 2048
SAMPLER_SET[45]: 686
Assign SAMPLER_SET[46]: 1637  LLC: 2048
SAMPLER_SET[46]: 1637
Assign SAMPLER_SET[47]: 1115  LLC: 2048
SAMPLER_SET[47]: 1115
Assign SAMPLER_SET[48]: 986  LLC: 2048
SAMPLER_SET[48]: 986
Assign SAMPLER_SET[49]: 258  LLC: 2048
SAMPLER_SET[49]: 258
Assign SAMPLER_SET[50]: 633  LLC: 2048
SAMPLER_SET[50]: 633
Assign SAMPLER_SET[51]: 920  LLC: 2048
SAMPLER_SET[51]: 920
Assign SAMPLER_SET[52]: 204  LLC: 2048
SAMPLER_SET[52]: 204
Assign SAMPLER_SET[53]: 227  LLC: 2048
SAMPLER_SET[53]: 227
Assign SAMPLER_SET[54]: 1818  LLC: 2048
SAMPLER_SET[54]: 1818
Assign SAMPLER_SET[55]: 886  LLC: 2048
SAMPLER_SET[55]: 886
Assign SAMPLER_SET[56]: 1422  LLC: 2048
SAMPLER_SET[56]: 1422
Assign SAMPLER_SET[57]: 607  LLC: 2048
SAMPLER_SET[57]: 607
Assign SAMPLER_SET[58]: 217  LLC: 2048
SAMPLER_SET[58]: 217
Assign SAMPLER_SET[59]: 1945  LLC: 2048
SAMPLER_SET[59]: 1945
Assign SAMPLER_SET[60]: 143  LLC: 2048
SAMPLER_SET[60]: 143
Assign SAMPLER_SET[61]: 1311  LLC: 2048
SAMPLER_SET[61]: 1311
Assign SAMPLER_SET[62]: 319  LLC: 2048
SAMPLER_SET[62]: 319
Assign SAMPLER_SET[63]: 1846  LLC: 2048
SAMPLER_SET[63]: 1846
Heartbeat CPU 0 instructions: 10000002 cycles: 5069833 heartbeat IPC: 1.97245 cumulative IPC: 1.97245 (Simulation time: 0 hr 0 min 23 sec) 
Heartbeat CPU 0 instructions: 20000001 cycles: 9517810 heartbeat IPC: 2.24821 cumulative IPC: 2.10132 (Simulation time: 0 hr 0 min 43 sec) 
Heartbeat CPU 0 instructions: 30000000 cycles: 14633815 heartbeat IPC: 1.95465 cumulative IPC: 2.05005 (Simulation time: 0 hr 1 min 6 sec) 
Heartbeat CPU 0 instructions: 40000002 cycles: 19922428 heartbeat IPC: 1.89086 cumulative IPC: 2.00779 (Simulation time: 0 hr 1 min 30 sec) 
Heartbeat CPU 0 instructions: 50000002 cycles: 25116515 heartbeat IPC: 1.92527 cumulative IPC: 1.99072 (Simulation time: 0 hr 1 min 53 sec) 
Heartbeat CPU 0 instructions: 60000003 cycles: 29657724 heartbeat IPC: 2.20206 cumulative IPC: 2.02308 (Simulation time: 0 hr 2 min 14 sec) 
Heartbeat CPU 0 instructions: 70000002 cycles: 34115481 heartbeat IPC: 2.24328 cumulative IPC: 2.05185 (Simulation time: 0 hr 2 min 35 sec) 
Heartbeat CPU 0 instructions: 80000000 cycles: 39348213 heartbeat IPC: 1.91105 cumulative IPC: 2.03313 (Simulation time: 0 hr 2 min 58 sec) 
Heartbeat CPU 0 instructions: 90000000 cycles: 44455000 heartbeat IPC: 1.95818 cumulative IPC: 2.02452 (Simulation time: 0 hr 3 min 21 sec) 
Heartbeat CPU 0 instructions: 100000001 cycles: 49748676 heartbeat IPC: 1.88905 cumulative IPC: 2.0101 (Simulation time: 0 hr 3 min 44 sec) 

Warmup complete CPU 0 instructions: 100000001 cycles: 49748676 (Simulation time: 0 hr 3 min 44 sec) 

Heartbeat CPU 0 instructions: 110000000 cycles: 69268520 heartbeat IPC: 0.512299 cumulative IPC: 0.512299 (Simulation time: 0 hr 4 min 7 sec) 
Heartbeat CPU 0 instructions: 120000003 cycles: 87235488 heartbeat IPC: 0.556577 cumulative IPC: 0.533521 (Simulation time: 0 hr 4 min 29 sec) 
Heartbeat CPU 0 instructions: 130000000 cycles: 101877861 heartbeat IPC: 0.682949 cumulative IPC: 0.575493 (Simulation time: 0 hr 4 min 50 sec) 
Heartbeat CPU 0 instructions: 140000000 cycles: 119870069 heartbeat IPC: 0.555796 cumulative IPC: 0.570439 (Simulation time: 0 hr 5 min 14 sec) 
Heartbeat CPU 0 instructions: 150000000 cycles: 141596037 heartbeat IPC: 0.460279 cumulative IPC: 0.544381 (Simulation time: 0 hr 5 min 38 sec) 
Heartbeat CPU 0 instructions: 160000002 cycles: 161970179 heartbeat IPC: 0.490818 cumulative IPC: 0.534657 (Simulation time: 0 hr 6 min 2 sec) 
Heartbeat CPU 0 instructions: 170000000 cycles: 183621733 heartbeat IPC: 0.461861 cumulative IPC: 0.522883 (Simulation time: 0 hr 6 min 27 sec) 
Heartbeat CPU 0 instructions: 180000001 cycles: 203556143 heartbeat IPC: 0.501645 cumulative IPC: 0.520131 (Simulation time: 0 hr 6 min 50 sec) 
Heartbeat CPU 0 instructions: 190000002 cycles: 221776105 heartbeat IPC: 0.548849 cumulative IPC: 0.523172 (Simulation time: 0 hr 7 min 12 sec) 
Heartbeat CPU 0 instructions: 200000002 cycles: 237416378 heartbeat IPC: 0.639375 cumulative IPC: 0.532857 (Simulation time: 0 hr 7 min 34 sec) 
Heartbeat CPU 0 instructions: 210000001 cycles: 252191397 heartbeat IPC: 0.676818 cumulative IPC: 0.543364 (Simulation time: 0 hr 7 min 56 sec) 
Heartbeat CPU 0 instructions: 220000000 cycles: 274501699 heartbeat IPC: 0.448223 cumulative IPC: 0.533919 (Simulation time: 0 hr 8 min 21 sec) 
Heartbeat CPU 0 instructions: 230000001 cycles: 293998082 heartbeat IPC: 0.512916 cumulative IPC: 0.532243 (Simulation time: 0 hr 8 min 44 sec) 
Heartbeat CPU 0 instructions: 240000001 cycles: 311972766 heartbeat IPC: 0.556338 cumulative IPC: 0.533894 (Simulation time: 0 hr 9 min 6 sec) 
Heartbeat CPU 0 instructions: 250000002 cycles: 328981300 heartbeat IPC: 0.58794 cumulative IPC: 0.537187 (Simulation time: 0 hr 9 min 28 sec) 
Heartbeat CPU 0 instructions: 260000001 cycles: 344660376 heartbeat IPC: 0.637793 cumulative IPC: 0.542535 (Simulation time: 0 hr 9 min 49 sec) 
Heartbeat CPU 0 instructions: 270000001 cycles: 356472530 heartbeat IPC: 0.846586 cumulative IPC: 0.554244 (Simulation time: 0 hr 10 min 10 sec) 
Heartbeat CPU 0 instructions: 280000001 cycles: 369743197 heartbeat IPC: 0.753542 cumulative IPC: 0.56251 (Simulation time: 0 hr 10 min 31 sec) 
Heartbeat CPU 0 instructions: 290000003 cycles: 387033625 heartbeat IPC: 0.578355 cumulative IPC: 0.563322 (Simulation time: 0 hr 10 min 54 sec) 
Heartbeat CPU 0 instructions: 300000001 cycles: 411181080 heartbeat IPC: 0.414122 cumulative IPC: 0.553354 (Simulation time: 0 hr 11 min 20 sec) 
Heartbeat CPU 0 instructions: 310000001 cycles: 430273708 heartbeat IPC: 0.523762 cumulative IPC: 0.551869 (Simulation time: 0 hr 11 min 43 sec) 
Heartbeat CPU 0 instructions: 320000000 cycles: 451365074 heartbeat IPC: 0.474128 cumulative IPC: 0.547786 (Simulation time: 0 hr 12 min 8 sec) 
Heartbeat CPU 0 instructions: 330000000 cycles: 471170429 heartbeat IPC: 0.504914 cumulative IPC: 0.545772 (Simulation time: 0 hr 12 min 31 sec) 
Heartbeat CPU 0 instructions: 340000000 cycles: 489348450 heartbeat IPC: 0.550115 cumulative IPC: 0.545951 (Simulation time: 0 hr 12 min 53 sec) 
Heartbeat CPU 0 instructions: 350000001 cycles: 506461947 heartbeat IPC: 0.584334 cumulative IPC: 0.547389 (Simulation time: 0 hr 13 min 16 sec) 
Heartbeat CPU 0 instructions: 360000000 cycles: 522868577 heartbeat IPC: 0.60951 cumulative IPC: 0.549544 (Simulation time: 0 hr 13 min 38 sec) 
Heartbeat CPU 0 instructions: 370000001 cycles: 538603544 heartbeat IPC: 0.635527 cumulative IPC: 0.552311 (Simulation time: 0 hr 14 min 0 sec) 
Heartbeat CPU 0 instructions: 380000002 cycles: 550030623 heartbeat IPC: 0.875114 cumulative IPC: 0.559684 (Simulation time: 0 hr 14 min 21 sec) 
Heartbeat CPU 0 instructions: 390000001 cycles: 561378993 heartbeat IPC: 0.881184 cumulative IPC: 0.566815 (Simulation time: 0 hr 14 min 42 sec) 
Heartbeat CPU 0 instructions: 400000001 cycles: 574338059 heartbeat IPC: 0.771661 cumulative IPC: 0.571876 (Simulation time: 0 hr 15 min 4 sec) 
Heartbeat CPU 0 instructions: 410000000 cycles: 589818206 heartbeat IPC: 0.645989 cumulative IPC: 0.574 (Simulation time: 0 hr 15 min 27 sec) 
Heartbeat CPU 0 instructions: 420000000 cycles: 612417270 heartbeat IPC: 0.442496 cumulative IPC: 0.568718 (Simulation time: 0 hr 15 min 51 sec) 
Heartbeat CPU 0 instructions: 430000003 cycles: 633035054 heartbeat IPC: 0.485018 cumulative IPC: 0.56576 (Simulation time: 0 hr 16 min 16 sec) 
Heartbeat CPU 0 instructions: 440000000 cycles: 651543512 heartbeat IPC: 0.540293 cumulative IPC: 0.564977 (Simulation time: 0 hr 16 min 38 sec) 
Heartbeat CPU 0 instructions: 450000001 cycles: 668138189 heartbeat IPC: 0.602603 cumulative IPC: 0.565986 (Simulation time: 0 hr 17 min 0 sec) 
Heartbeat CPU 0 instructions: 460000001 cycles: 682066842 heartbeat IPC: 0.717945 cumulative IPC: 0.569334 (Simulation time: 0 hr 17 min 22 sec) 
Heartbeat CPU 0 instructions: 470000001 cycles: 704029194 heartbeat IPC: 0.455325 cumulative IPC: 0.565507 (Simulation time: 0 hr 17 min 47 sec) 
Heartbeat CPU 0 instructions: 480000001 cycles: 723706631 heartbeat IPC: 0.508196 cumulative IPC: 0.563833 (Simulation time: 0 hr 18 min 10 sec) 
Heartbeat CPU 0 instructions: 490000002 cycles: 740674461 heartbeat IPC: 0.589351 cumulative IPC: 0.56446 (Simulation time: 0 hr 18 min 32 sec) 
Heartbeat CPU 0 instructions: 500000000 cycles: 761182739 heartbeat IPC: 0.487608 cumulative IPC: 0.562245 (Simulation time: 0 hr 18 min 57 sec) 
Heartbeat CPU 0 instructions: 510000000 cycles: 781752660 heartbeat IPC: 0.486147 cumulative IPC: 0.560106 (Simulation time: 0 hr 19 min 21 sec) 
Heartbeat CPU 0 instructions: 520000003 cycles: 800404474 heartbeat IPC: 0.536141 cumulative IPC: 0.559511 (Simulation time: 0 hr 19 min 44 sec) 
Heartbeat CPU 0 instructions: 530000000 cycles: 817896785 heartbeat IPC: 0.57168 cumulative IPC: 0.559788 (Simulation time: 0 hr 20 min 7 sec) 
Heartbeat CPU 0 instructions: 540000001 cycles: 834531460 heartbeat IPC: 0.601154 cumulative IPC: 0.560665 (Simulation time: 0 hr 20 min 29 sec) 
Heartbeat CPU 0 instructions: 550000000 cycles: 850479716 heartbeat IPC: 0.627028 cumulative IPC: 0.561986 (Simulation time: 0 hr 20 min 51 sec) 
Heartbeat CPU 0 instructions: 560000001 cycles: 865910326 heartbeat IPC: 0.648063 cumulative IPC: 0.563614 (Simulation time: 0 hr 21 min 12 sec) 
Heartbeat CPU 0 instructions: 570000000 cycles: 876685585 heartbeat IPC: 0.928052 cumulative IPC: 0.568363 (Simulation time: 0 hr 21 min 32 sec) 
Heartbeat CPU 0 instructions: 580000001 cycles: 887766818 heartbeat IPC: 0.902427 cumulative IPC: 0.57278 (Simulation time: 0 hr 21 min 53 sec) 
Heartbeat CPU 0 instructions: 590000001 cycles: 900229512 heartbeat IPC: 0.802395 cumulative IPC: 0.576145 (Simulation time: 0 hr 22 min 14 sec) 
Heartbeat CPU 0 instructions: 600000001 cycles: 914375263 heartbeat IPC: 0.706926 cumulative IPC: 0.578284 (Simulation time: 0 hr 22 min 36 sec) 
Heartbeat CPU 0 instructions: 610000001 cycles: 931907607 heartbeat IPC: 0.570374 cumulative IPC: 0.578127 (Simulation time: 0 hr 22 min 59 sec) 
Heartbeat CPU 0 instructions: 620000002 cycles: 955267095 heartbeat IPC: 0.428092 cumulative IPC: 0.574257 (Simulation time: 0 hr 23 min 23 sec) 
Heartbeat CPU 0 instructions: 630000002 cycles: 976930871 heartbeat IPC: 0.4616 cumulative IPC: 0.571624 (Simulation time: 0 hr 23 min 48 sec) 
Heartbeat CPU 0 instructions: 640000001 cycles: 998807095 heartbeat IPC: 0.457117 cumulative IPC: 0.568985 (Simulation time: 0 hr 24 min 13 sec) 
Heartbeat CPU 0 instructions: 650000000 cycles: 1018067118 heartbeat IPC: 0.51921 cumulative IPC: 0.567995 (Simulation time: 0 hr 24 min 35 sec) 
Heartbeat CPU 0 instructions: 660000000 cycles: 1035950874 heartbeat IPC: 0.559167 cumulative IPC: 0.567835 (Simulation time: 0 hr 24 min 57 sec) 
Heartbeat CPU 0 instructions: 670000003 cycles: 1052835585 heartbeat IPC: 0.592252 cumulative IPC: 0.568246 (Simulation time: 0 hr 25 min 19 sec) 
Heartbeat CPU 0 instructions: 680000000 cycles: 1068411108 heartbeat IPC: 0.642033 cumulative IPC: 0.569374 (Simulation time: 0 hr 25 min 40 sec) 
Heartbeat CPU 0 instructions: 690000001 cycles: 1079674550 heartbeat IPC: 0.887828 cumulative IPC: 0.572857 (Simulation time: 0 hr 26 min 1 sec) 
Heartbeat CPU 0 instructions: 700000001 cycles: 1092774675 heartbeat IPC: 0.763352 cumulative IPC: 0.575249 (Simulation time: 0 hr 26 min 22 sec) 
Heartbeat CPU 0 instructions: 710000000 cycles: 1109752790 heartbeat IPC: 0.588993 cumulative IPC: 0.575469 (Simulation time: 0 hr 26 min 45 sec) 
Heartbeat CPU 0 instructions: 720000002 cycles: 1132501771 heartbeat IPC: 0.43958 cumulative IPC: 0.572614 (Simulation time: 0 hr 27 min 10 sec) 
Heartbeat CPU 0 instructions: 730000000 cycles: 1153658749 heartbeat IPC: 0.472657 cumulative IPC: 0.570699 (Simulation time: 0 hr 27 min 34 sec) 
Heartbeat CPU 0 instructions: 740000000 cycles: 1175129926 heartbeat IPC: 0.465741 cumulative IPC: 0.568696 (Simulation time: 0 hr 27 min 58 sec) 
Heartbeat CPU 0 instructions: 750000002 cycles: 1198072457 heartbeat IPC: 0.435872 cumulative IPC: 0.566042 (Simulation time: 0 hr 28 min 24 sec) 
Heartbeat CPU 0 instructions: 760000000 cycles: 1221118397 heartbeat IPC: 0.433916 cumulative IPC: 0.563443 (Simulation time: 0 hr 28 min 49 sec) 
Heartbeat CPU 0 instructions: 770000000 cycles: 1241084740 heartbeat IPC: 0.500843 cumulative IPC: 0.562394 (Simulation time: 0 hr 29 min 12 sec) 
Heartbeat CPU 0 instructions: 780000002 cycles: 1259404950 heartbeat IPC: 0.545845 cumulative IPC: 0.562143 (Simulation time: 0 hr 29 min 34 sec) 
Heartbeat CPU 0 instructions: 790000000 cycles: 1276473710 heartbeat IPC: 0.585865 cumulative IPC: 0.562473 (Simulation time: 0 hr 29 min 55 sec) 
Heartbeat CPU 0 instructions: 800000002 cycles: 1289474904 heartbeat IPC: 0.76916 cumulative IPC: 0.564641 (Simulation time: 0 hr 30 min 16 sec) 
Heartbeat CPU 0 instructions: 810000000 cycles: 1306028154 heartbeat IPC: 0.604111 cumulative IPC: 0.565161 (Simulation time: 0 hr 30 min 39 sec) 
Heartbeat CPU 0 instructions: 820000002 cycles: 1328715540 heartbeat IPC: 0.440774 cumulative IPC: 0.562954 (Simulation time: 0 hr 31 min 4 sec) 
Heartbeat CPU 0 instructions: 830000000 cycles: 1349244370 heartbeat IPC: 0.48712 cumulative IPC: 0.561756 (Simulation time: 0 hr 31 min 28 sec) 
Heartbeat CPU 0 instructions: 840000000 cycles: 1371447015 heartbeat IPC: 0.450397 cumulative IPC: 0.559886 (Simulation time: 0 hr 31 min 53 sec) 
Heartbeat CPU 0 instructions: 850000001 cycles: 1390561285 heartbeat IPC: 0.523169 cumulative IPC: 0.559362 (Simulation time: 0 hr 32 min 16 sec) 
Heartbeat CPU 0 instructions: 860000001 cycles: 1409158366 heartbeat IPC: 0.537719 cumulative IPC: 0.559066 (Simulation time: 0 hr 32 min 40 sec) 
Heartbeat CPU 0 instructions: 870000001 cycles: 1429795234 heartbeat IPC: 0.48457 cumulative IPC: 0.557952 (Simulation time: 0 hr 33 min 4 sec) 
Heartbeat CPU 0 instructions: 880000000 cycles: 1448285113 heartbeat IPC: 0.540836 cumulative IPC: 0.557726 (Simulation time: 0 hr 33 min 26 sec) 
Heartbeat CPU 0 instructions: 890000000 cycles: 1464582537 heartbeat IPC: 0.613594 cumulative IPC: 0.558369 (Simulation time: 0 hr 33 min 49 sec) 
Heartbeat CPU 0 instructions: 900000001 cycles: 1488195013 heartbeat IPC: 0.423505 cumulative IPC: 0.556156 (Simulation time: 0 hr 34 min 15 sec) 
Heartbeat CPU 0 instructions: 910000000 cycles: 1508218391 heartbeat IPC: 0.499416 cumulative IPC: 0.555377 (Simulation time: 0 hr 34 min 39 sec) 
Heartbeat CPU 0 instructions: 920000001 cycles: 1526549149 heartbeat IPC: 0.545531 cumulative IPC: 0.555254 (Simulation time: 0 hr 35 min 1 sec) 
Heartbeat CPU 0 instructions: 930000000 cycles: 1541658049 heartbeat IPC: 0.661861 cumulative IPC: 0.556334 (Simulation time: 0 hr 35 min 22 sec) 
Heartbeat CPU 0 instructions: 940000002 cycles: 1561328962 heartbeat IPC: 0.508365 cumulative IPC: 0.55571 (Simulation time: 0 hr 35 min 46 sec) 
Heartbeat CPU 0 instructions: 950000002 cycles: 1581596113 heartbeat IPC: 0.493409 cumulative IPC: 0.554886 (Simulation time: 0 hr 36 min 10 sec) 
Heartbeat CPU 0 instructions: 960000001 cycles: 1602802418 heartbeat IPC: 0.471558 cumulative IPC: 0.553748 (Simulation time: 0 hr 36 min 35 sec) 
Heartbeat CPU 0 instructions: 970000001 cycles: 1622340940 heartbeat IPC: 0.511809 cumulative IPC: 0.553227 (Simulation time: 0 hr 36 min 58 sec) 
Heartbeat CPU 0 instructions: 980000000 cycles: 1640338445 heartbeat IPC: 0.555633 cumulative IPC: 0.553254 (Simulation time: 0 hr 37 min 20 sec) 
Heartbeat CPU 0 instructions: 990000000 cycles: 1657369621 heartbeat IPC: 0.587159 cumulative IPC: 0.553613 (Simulation time: 0 hr 37 min 42 sec) 
Heartbeat CPU 0 instructions: 1000000000 cycles: 1670542912 heartbeat IPC: 0.759112 cumulative IPC: 0.555283 (Simulation time: 0 hr 38 min 2 sec) 
Heartbeat CPU 0 instructions: 1010000001 cycles: 1684466689 heartbeat IPC: 0.718196 cumulative IPC: 0.556671 (Simulation time: 0 hr 38 min 24 sec) 
Heartbeat CPU 0 instructions: 1020000002 cycles: 1705696110 heartbeat IPC: 0.471044 cumulative IPC: 0.555573 (Simulation time: 0 hr 38 min 48 sec) 
Heartbeat CPU 0 instructions: 1030000000 cycles: 1726120568 heartbeat IPC: 0.489609 cumulative IPC: 0.55477 (Simulation time: 0 hr 39 min 12 sec) 
Heartbeat CPU 0 instructions: 1040000000 cycles: 1744143004 heartbeat IPC: 0.554864 cumulative IPC: 0.554771 (Simulation time: 0 hr 39 min 34 sec) 
Heartbeat CPU 0 instructions: 1050000000 cycles: 1762295540 heartbeat IPC: 0.550887 cumulative IPC: 0.554729 (Simulation time: 0 hr 39 min 58 sec) 
Heartbeat CPU 0 instructions: 1060000002 cycles: 1783225242 heartbeat IPC: 0.47779 cumulative IPC: 0.5538 (Simulation time: 0 hr 40 min 22 sec) 
Heartbeat CPU 0 instructions: 1070000003 cycles: 1801678963 heartbeat IPC: 0.541896 cumulative IPC: 0.553675 (Simulation time: 0 hr 40 min 44 sec) 
Heartbeat CPU 0 instructions: 1080000001 cycles: 1817037323 heartbeat IPC: 0.651111 cumulative IPC: 0.554522 (Simulation time: 0 hr 41 min 6 sec) 
Heartbeat CPU 0 instructions: 1090000001 cycles: 1838813694 heartbeat IPC: 0.459213 cumulative IPC: 0.553362 (Simulation time: 0 hr 41 min 31 sec) 
Heartbeat CPU 0 instructions: 1100000000 cycles: 1858086338 heartbeat IPC: 0.51887 cumulative IPC: 0.552994 (Simulation time: 0 hr 41 min 54 sec) 
Finished CPU 0 instructions: 1000000000 cycles: 1808337663 cumulative IPC: 0.552994 (Simulation time: 0 hr 41 min 54 sec) 

ChampSim completed all CPUs

Region of Interest Statistics

CPU 0 cumulative IPC: 0.552994 instructions: 1000000000 cycles: 1808337663
L1D TOTAL     ACCESS:  234868518  HIT:  182173768  MISS:   52694750
L1D LOAD      ACCESS:  168250678  HIT:  117227267  MISS:   51023411
L1D RFO       ACCESS:   66617840  HIT:   64946501  MISS:    1671339
L1D PREFETCH  ACCESS:          0  HIT:          0  MISS:          0
L1D WRITEBACK ACCESS:          0  HIT:          0  MISS:          0
L1D PREFETCH  REQUESTED:          0  ISSUED:          0  USEFUL:          0  USELESS:          0
L1D AVERAGE MISS LATENCY: 33.8748 cycles
L1I TOTAL     ACCESS:  219047917  HIT:  216587228  MISS:    2460689
L1I LOAD      ACCESS:  219047917  HIT:  216587228  MISS:    2460689
L1I RFO       ACCESS:          0  HIT:          0  MISS:          0
L1I PREFETCH  ACCESS:          0  HIT:          0  MISS:          0
L1I WRITEBACK ACCESS:          0  HIT:          0  MISS:          0
L1I PREFETCH  REQUESTED:          0  ISSUED:          0  USEFUL:          0  USELESS:          0
L1I AVERAGE MISS LATENCY: 19.581 cycles
L2C TOTAL     ACCESS:   57906118  HIT:   36942410  MISS:   20963708
L2C LOAD      ACCESS:   53483431  HIT:   33888913  MISS:   19594518
L2C RFO       ACCESS:    1671286  HIT:     302260  MISS:    1369026
L2C PREFETCH  ACCESS:          0  HIT:          0  MISS:          0
L2C WRITEBACK ACCESS:    2751401  HIT:    2751237  MISS:        164
L2C PREFETCH  REQUESTED:          0  ISSUED:          0  USEFUL:          0  USELESS:          0
L2C AVERAGE MISS LATENCY: 52.6902 cycles
LLC TOTAL     ACCESS:   22832306  HIT:   21363193  MISS:    1469113
LLC LOAD      ACCESS:   19594445  HIT:   19332265  MISS:     262180
LLC RFO       ACCESS:    1369016  HIT:     299781  MISS:    1069235
LLC PREFETCH  ACCESS:          0  HIT:          0  MISS:          0
LLC WRITEBACK ACCESS:    1868845  HIT:    1731147  MISS:     137698
LLC PREFETCH  REQUESTED:          0  ISSUED:          0  USEFUL:          0  USELESS:          0
LLC AVERAGE MISS LATENCY: 148.216 cycles
Major fault: 0 Minor fault: 6208
==============================
Perceptron RRIP Stats:
   Num Updates:          773359
   Num Primary Trains:   7862
   Num Secondary Trains: 8207
==============================
primary_perceptron #0: 6 -8 -4 4 -6 4 2 -2 -4 -4 0 2 2 2 -4 -4 
secondary_perceptron #0: 7 -11 -5 3 -9 5 1 1 -9 -5 -1 -3 1 3 -1 -3 1 -3 -1 1 -7 


DRAM Statistics
 CHANNEL 0
 RQ ROW_BUFFER_HIT:     578407  ROW_BUFFER_MISS:     752978
 DBUS_CONGESTED:    1082467
 WQ ROW_BUFFER_HIT:     236644  ROW_BUFFER_MISS:     972266  FULL:        505

 AVG_CONGESTED_CYCLE: 6

CPU 0 Branch Prediction Accuracy: 97.9229% MPKI: 5.94568 Average ROB Occupancy at Mispredict: 44.2738

Branch types
NOT_BRANCH: 713754972 71.3755%
BRANCH_DIRECT_JUMP: 7870399 0.78704%
BRANCH_INDIRECT: 2818396 0.28184%
BRANCH_CONDITIONAL: 244384419 24.4384%
BRANCH_DIRECT_CALL: 9876498 0.98765%
BRANCH_INDIRECT_CALL: 5709278 0.570928%
BRANCH_RETURN: 15585777 1.55858%
BRANCH_OTHER: 0 0%

