
*** ChampSim Multicore Out-of-Order Simulator ***

Warmup Instructions: 100000000
Simulation Instructions: 1000000000
Number of CPUs: 1
LLC sets: 2048
LLC ways: 16
Off-chip DRAM Size: 4096 MB Channels: 1 Width: 64-bit Data Rate: 3200 MT/s

CPU 0 runs /scratch/user/kevin.weston/dpc3-traces/623.champsimtrace.xz
CPU 0 Bimodal branch predictor
Per-line RRPV Initialized
PRRIP State Initialized
Assign SAMPLER_SET[0]: 454  LLC: 2048
SAMPLER_SET[0]: 454
Assign SAMPLER_SET[1]: 1662  LLC: 2048
SAMPLER_SET[1]: 1662
Assign SAMPLER_SET[2]: 1921  LLC: 2048
SAMPLER_SET[2]: 1921
Assign SAMPLER_SET[3]: 1131  LLC: 2048
SAMPLER_SET[3]: 1131
Assign SAMPLER_SET[4]: 331  LLC: 2048
SAMPLER_SET[4]: 331
Assign SAMPLER_SET[5]: 1531  LLC: 2048
SAMPLER_SET[5]: 1531
Assign SAMPLER_SET[6]: 482  LLC: 2048
SAMPLER_SET[6]: 482
Assign SAMPLER_SET[7]: 1275  LLC: 2048
SAMPLER_SET[7]: 1275
Assign SAMPLER_SET[8]: 1876  LLC: 2048
SAMPLER_SET[8]: 1876
Assign SAMPLER_SET[9]: 2038  LLC: 2048
SAMPLER_SET[9]: 2038
Assign SAMPLER_SET[10]: 701  LLC: 2048
SAMPLER_SET[10]: 701
Assign SAMPLER_SET[11]: 479  LLC: 2048
SAMPLER_SET[11]: 479
Assign SAMPLER_SET[12]: 892  LLC: 2048
SAMPLER_SET[12]: 892
Assign SAMPLER_SET[13]: 1820  LLC: 2048
SAMPLER_SET[13]: 1820
Assign SAMPLER_SET[14]: 1505  LLC: 2048
SAMPLER_SET[14]: 1505
Assign SAMPLER_SET[15]: 1159  LLC: 2048
SAMPLER_SET[15]: 1159
Assign SAMPLER_SET[16]: 513  LLC: 2048
SAMPLER_SET[16]: 513
Assign SAMPLER_SET[17]: 703  LLC: 2048
SAMPLER_SET[17]: 703
Assign SAMPLER_SET[18]: 561  LLC: 2048
SAMPLER_SET[18]: 561
Assign SAMPLER_SET[19]: 990  LLC: 2048
SAMPLER_SET[19]: 990
Assign SAMPLER_SET[20]: 342  LLC: 2048
SAMPLER_SET[20]: 342
Assign SAMPLER_SET[21]: 882  LLC: 2048
SAMPLER_SET[21]: 882
Assign SAMPLER_SET[22]: 15  LLC: 2048
SAMPLER_SET[22]: 15
Assign SAMPLER_SET[23]: 71  LLC: 2048
SAMPLER_SET[23]: 71
Assign SAMPLER_SET[24]: 1127  LLC: 2048
SAMPLER_SET[24]: 1127
Assign SAMPLER_SET[25]: 1382  LLC: 2048
SAMPLER_SET[25]: 1382
Assign SAMPLER_SET[26]: 647  LLC: 2048
SAMPLER_SET[26]: 647
Assign SAMPLER_SET[27]: 857  LLC: 2048
SAMPLER_SET[27]: 857
Assign SAMPLER_SET[28]: 1450  LLC: 2048
SAMPLER_SET[28]: 1450
Assign SAMPLER_SET[29]: 1160  LLC: 2048
SAMPLER_SET[29]: 1160
Assign SAMPLER_SET[30]: 1852  LLC: 2048
SAMPLER_SET[30]: 1852
Assign SAMPLER_SET[31]: 1881  LLC: 2048
SAMPLER_SET[31]: 1881
Assign SAMPLER_SET[32]: 1770  LLC: 2048
SAMPLER_SET[32]: 1770
Assign SAMPLER_SET[33]: 1622  LLC: 2048
SAMPLER_SET[33]: 1622
Assign SAMPLER_SET[34]: 275  LLC: 2048
SAMPLER_SET[34]: 275
Assign SAMPLER_SET[35]: 635  LLC: 2048
SAMPLER_SET[35]: 635
Assign SAMPLER_SET[36]: 466  LLC: 2048
SAMPLER_SET[36]: 466
Assign SAMPLER_SET[37]: 1413  LLC: 2048
SAMPLER_SET[37]: 1413
Assign SAMPLER_SET[38]: 417  LLC: 2048
SAMPLER_SET[38]: 417
Assign SAMPLER_SET[39]: 472  LLC: 2048
SAMPLER_SET[39]: 472
Assign SAMPLER_SET[40]: 1340  LLC: 2048
SAMPLER_SET[40]: 1340
Assign SAMPLER_SET[41]: 852  LLC: 2048
SAMPLER_SET[41]: 852
Assign SAMPLER_SET[42]: 1365  LLC: 2048
SAMPLER_SET[42]: 1365
Assign SAMPLER_SET[43]: 47  LLC: 2048
SAMPLER_SET[43]: 47
Assign SAMPLER_SET[44]: 823  LLC: 2048
SAMPLER_SET[44]: 823
Assign SAMPLER_SET[45]: 686  LLC: 2048
SAMPLER_SET[45]: 686
Assign SAMPLER_SET[46]: 1637  LLC: 2048
SAMPLER_SET[46]: 1637
Assign SAMPLER_SET[47]: 1115  LLC: 2048
SAMPLER_SET[47]: 1115
Assign SAMPLER_SET[48]: 986  LLC: 2048
SAMPLER_SET[48]: 986
Assign SAMPLER_SET[49]: 258  LLC: 2048
SAMPLER_SET[49]: 258
Assign SAMPLER_SET[50]: 633  LLC: 2048
SAMPLER_SET[50]: 633
Assign SAMPLER_SET[51]: 920  LLC: 2048
SAMPLER_SET[51]: 920
Assign SAMPLER_SET[52]: 204  LLC: 2048
SAMPLER_SET[52]: 204
Assign SAMPLER_SET[53]: 227  LLC: 2048
SAMPLER_SET[53]: 227
Assign SAMPLER_SET[54]: 1818  LLC: 2048
SAMPLER_SET[54]: 1818
Assign SAMPLER_SET[55]: 886  LLC: 2048
SAMPLER_SET[55]: 886
Assign SAMPLER_SET[56]: 1422  LLC: 2048
SAMPLER_SET[56]: 1422
Assign SAMPLER_SET[57]: 607  LLC: 2048
SAMPLER_SET[57]: 607
Assign SAMPLER_SET[58]: 217  LLC: 2048
SAMPLER_SET[58]: 217
Assign SAMPLER_SET[59]: 1945  LLC: 2048
SAMPLER_SET[59]: 1945
Assign SAMPLER_SET[60]: 143  LLC: 2048
SAMPLER_SET[60]: 143
Assign SAMPLER_SET[61]: 1311  LLC: 2048
SAMPLER_SET[61]: 1311
Assign SAMPLER_SET[62]: 319  LLC: 2048
SAMPLER_SET[62]: 319
Assign SAMPLER_SET[63]: 1846  LLC: 2048
SAMPLER_SET[63]: 1846
Heartbeat CPU 0 instructions: 10000002 cycles: 5070773 heartbeat IPC: 1.97209 cumulative IPC: 1.97209 (Simulation time: 0 hr 0 min 24 sec) 
Heartbeat CPU 0 instructions: 20000001 cycles: 9512512 heartbeat IPC: 2.25137 cumulative IPC: 2.10249 (Simulation time: 0 hr 0 min 46 sec) 
Heartbeat CPU 0 instructions: 30000000 cycles: 14624729 heartbeat IPC: 1.9561 cumulative IPC: 2.05132 (Simulation time: 0 hr 1 min 10 sec) 
Heartbeat CPU 0 instructions: 40000002 cycles: 19914676 heartbeat IPC: 1.89038 cumulative IPC: 2.00857 (Simulation time: 0 hr 1 min 35 sec) 
Heartbeat CPU 0 instructions: 50000002 cycles: 25111077 heartbeat IPC: 1.92441 cumulative IPC: 1.99115 (Simulation time: 0 hr 1 min 59 sec) 
Heartbeat CPU 0 instructions: 60000003 cycles: 29649370 heartbeat IPC: 2.20347 cumulative IPC: 2.02365 (Simulation time: 0 hr 2 min 21 sec) 
Heartbeat CPU 0 instructions: 70000002 cycles: 34096820 heartbeat IPC: 2.24848 cumulative IPC: 2.05298 (Simulation time: 0 hr 2 min 43 sec) 
Heartbeat CPU 0 instructions: 80000000 cycles: 39322028 heartbeat IPC: 1.9138 cumulative IPC: 2.03448 (Simulation time: 0 hr 3 min 8 sec) 
Heartbeat CPU 0 instructions: 90000000 cycles: 44422633 heartbeat IPC: 1.96055 cumulative IPC: 2.02599 (Simulation time: 0 hr 3 min 32 sec) 
Heartbeat CPU 0 instructions: 100000001 cycles: 49711525 heartbeat IPC: 1.89076 cumulative IPC: 2.01161 (Simulation time: 0 hr 3 min 57 sec) 

Warmup complete CPU 0 instructions: 100000001 cycles: 49711525 (Simulation time: 0 hr 3 min 57 sec) 

Heartbeat CPU 0 instructions: 110000000 cycles: 69107094 heartbeat IPC: 0.515582 cumulative IPC: 0.515582 (Simulation time: 0 hr 4 min 21 sec) 
Heartbeat CPU 0 instructions: 120000003 cycles: 87017476 heartbeat IPC: 0.558336 cumulative IPC: 0.536108 (Simulation time: 0 hr 4 min 44 sec) 
Heartbeat CPU 0 instructions: 130000000 cycles: 101511296 heartbeat IPC: 0.689949 cumulative IPC: 0.579153 (Simulation time: 0 hr 5 min 6 sec) 
Heartbeat CPU 0 instructions: 140000000 cycles: 119305371 heartbeat IPC: 0.561985 cumulative IPC: 0.574763 (Simulation time: 0 hr 5 min 31 sec) 
Heartbeat CPU 0 instructions: 150000000 cycles: 140862603 heartbeat IPC: 0.463881 cumulative IPC: 0.54854 (Simulation time: 0 hr 5 min 56 sec) 
Heartbeat CPU 0 instructions: 160000002 cycles: 160972881 heartbeat IPC: 0.497258 cumulative IPC: 0.539271 (Simulation time: 0 hr 6 min 21 sec) 
Heartbeat CPU 0 instructions: 170000000 cycles: 182306113 heartbeat IPC: 0.468752 cumulative IPC: 0.527925 (Simulation time: 0 hr 6 min 47 sec) 
Heartbeat CPU 0 instructions: 180000001 cycles: 202117956 heartbeat IPC: 0.504749 cumulative IPC: 0.524912 (Simulation time: 0 hr 7 min 12 sec) 
Heartbeat CPU 0 instructions: 190000002 cycles: 220248475 heartbeat IPC: 0.551556 cumulative IPC: 0.527745 (Simulation time: 0 hr 7 min 34 sec) 
Heartbeat CPU 0 instructions: 200000002 cycles: 235759635 heartbeat IPC: 0.644697 cumulative IPC: 0.537495 (Simulation time: 0 hr 7 min 57 sec) 
Heartbeat CPU 0 instructions: 210000001 cycles: 250346716 heartbeat IPC: 0.685538 cumulative IPC: 0.548259 (Simulation time: 0 hr 8 min 19 sec) 
Heartbeat CPU 0 instructions: 220000000 cycles: 272302148 heartbeat IPC: 0.455468 cumulative IPC: 0.539106 (Simulation time: 0 hr 8 min 46 sec) 
Heartbeat CPU 0 instructions: 230000001 cycles: 291733980 heartbeat IPC: 0.51462 cumulative IPC: 0.53714 (Simulation time: 0 hr 9 min 10 sec) 
Heartbeat CPU 0 instructions: 240000001 cycles: 309688793 heartbeat IPC: 0.556954 cumulative IPC: 0.538509 (Simulation time: 0 hr 9 min 33 sec) 
Heartbeat CPU 0 instructions: 250000002 cycles: 326656714 heartbeat IPC: 0.589347 cumulative IPC: 0.541623 (Simulation time: 0 hr 9 min 56 sec) 
Heartbeat CPU 0 instructions: 260000001 cycles: 342300522 heartbeat IPC: 0.63923 cumulative IPC: 0.546842 (Simulation time: 0 hr 10 min 18 sec) 
Heartbeat CPU 0 instructions: 270000001 cycles: 354040098 heartbeat IPC: 0.85182 cumulative IPC: 0.558607 (Simulation time: 0 hr 10 min 40 sec) 
Heartbeat CPU 0 instructions: 280000001 cycles: 367202012 heartbeat IPC: 0.759768 cumulative IPC: 0.566946 (Simulation time: 0 hr 11 min 2 sec) 
Heartbeat CPU 0 instructions: 290000003 cycles: 384201798 heartbeat IPC: 0.588243 cumulative IPC: 0.568029 (Simulation time: 0 hr 11 min 25 sec) 
Heartbeat CPU 0 instructions: 300000001 cycles: 408001372 heartbeat IPC: 0.420175 cumulative IPC: 0.558207 (Simulation time: 0 hr 11 min 52 sec) 
Heartbeat CPU 0 instructions: 310000001 cycles: 426932616 heartbeat IPC: 0.528227 cumulative IPC: 0.556703 (Simulation time: 0 hr 12 min 15 sec) 
Heartbeat CPU 0 instructions: 320000000 cycles: 447838620 heartbeat IPC: 0.478331 cumulative IPC: 0.552587 (Simulation time: 0 hr 12 min 41 sec) 
Heartbeat CPU 0 instructions: 330000000 cycles: 467596912 heartbeat IPC: 0.506117 cumulative IPC: 0.55039 (Simulation time: 0 hr 13 min 6 sec) 
Heartbeat CPU 0 instructions: 340000000 cycles: 485743234 heartbeat IPC: 0.551076 cumulative IPC: 0.550419 (Simulation time: 0 hr 13 min 29 sec) 
Heartbeat CPU 0 instructions: 350000000 cycles: 502860524 heartbeat IPC: 0.584205 cumulative IPC: 0.551695 (Simulation time: 0 hr 13 min 52 sec) 
Heartbeat CPU 0 instructions: 360000000 cycles: 519264567 heartbeat IPC: 0.609606 cumulative IPC: 0.553718 (Simulation time: 0 hr 14 min 15 sec) 
Heartbeat CPU 0 instructions: 370000001 cycles: 535008972 heartbeat IPC: 0.635146 cumulative IPC: 0.55636 (Simulation time: 0 hr 14 min 37 sec) 
Heartbeat CPU 0 instructions: 380000002 cycles: 546439186 heartbeat IPC: 0.874874 cumulative IPC: 0.563689 (Simulation time: 0 hr 14 min 59 sec) 
Heartbeat CPU 0 instructions: 390000001 cycles: 557782530 heartbeat IPC: 0.881574 cumulative IPC: 0.570786 (Simulation time: 0 hr 15 min 21 sec) 
Heartbeat CPU 0 instructions: 400000001 cycles: 570613892 heartbeat IPC: 0.779341 cumulative IPC: 0.575924 (Simulation time: 0 hr 15 min 43 sec) 
Heartbeat CPU 0 instructions: 410000000 cycles: 585913131 heartbeat IPC: 0.653627 cumulative IPC: 0.578141 (Simulation time: 0 hr 16 min 6 sec) 
Heartbeat CPU 0 instructions: 420000000 cycles: 608352278 heartbeat IPC: 0.44565 cumulative IPC: 0.572819 (Simulation time: 0 hr 16 min 31 sec) 
Heartbeat CPU 0 instructions: 430000003 cycles: 628846797 heartbeat IPC: 0.487935 cumulative IPC: 0.569815 (Simulation time: 0 hr 16 min 56 sec) 
Heartbeat CPU 0 instructions: 440000000 cycles: 647267624 heartbeat IPC: 0.542864 cumulative IPC: 0.568984 (Simulation time: 0 hr 17 min 19 sec) 
Heartbeat CPU 0 instructions: 450000001 cycles: 663741506 heartbeat IPC: 0.607022 cumulative IPC: 0.570005 (Simulation time: 0 hr 17 min 41 sec) 
Heartbeat CPU 0 instructions: 460000001 cycles: 677549655 heartbeat IPC: 0.72421 cumulative IPC: 0.573396 (Simulation time: 0 hr 18 min 3 sec) 
Heartbeat CPU 0 instructions: 470000001 cycles: 699282570 heartbeat IPC: 0.460132 cumulative IPC: 0.569607 (Simulation time: 0 hr 18 min 29 sec) 
Heartbeat CPU 0 instructions: 480000001 cycles: 718822761 heartbeat IPC: 0.511766 cumulative IPC: 0.567918 (Simulation time: 0 hr 18 min 53 sec) 
Heartbeat CPU 0 instructions: 490000002 cycles: 735632993 heartbeat IPC: 0.594876 cumulative IPC: 0.568578 (Simulation time: 0 hr 19 min 16 sec) 
Heartbeat CPU 0 instructions: 500000000 cycles: 755739065 heartbeat IPC: 0.497362 cumulative IPC: 0.56655 (Simulation time: 0 hr 19 min 41 sec) 
Heartbeat CPU 0 instructions: 510000000 cycles: 776288249 heartbeat IPC: 0.486637 cumulative IPC: 0.56429 (Simulation time: 0 hr 20 min 6 sec) 
Heartbeat CPU 0 instructions: 520000003 cycles: 794938865 heartbeat IPC: 0.536175 cumulative IPC: 0.563586 (Simulation time: 0 hr 20 min 30 sec) 
Heartbeat CPU 0 instructions: 530000000 cycles: 812446096 heartbeat IPC: 0.571192 cumulative IPC: 0.563761 (Simulation time: 0 hr 20 min 53 sec) 
Heartbeat CPU 0 instructions: 540000001 cycles: 829075280 heartbeat IPC: 0.601352 cumulative IPC: 0.564563 (Simulation time: 0 hr 21 min 16 sec) 
Heartbeat CPU 0 instructions: 550000000 cycles: 845048851 heartbeat IPC: 0.626034 cumulative IPC: 0.565798 (Simulation time: 0 hr 21 min 39 sec) 
Heartbeat CPU 0 instructions: 560000001 cycles: 860496284 heartbeat IPC: 0.647357 cumulative IPC: 0.567352 (Simulation time: 0 hr 22 min 2 sec) 
Heartbeat CPU 0 instructions: 570000000 cycles: 871238844 heartbeat IPC: 0.930877 cumulative IPC: 0.572105 (Simulation time: 0 hr 22 min 24 sec) 
Heartbeat CPU 0 instructions: 580000001 cycles: 882252242 heartbeat IPC: 0.907985 cumulative IPC: 0.576548 (Simulation time: 0 hr 22 min 46 sec) 
Heartbeat CPU 0 instructions: 590000001 cycles: 894620976 heartbeat IPC: 0.80849 cumulative IPC: 0.579944 (Simulation time: 0 hr 23 min 9 sec) 
Heartbeat CPU 0 instructions: 600000001 cycles: 908661024 heartbeat IPC: 0.712248 cumulative IPC: 0.582106 (Simulation time: 0 hr 23 min 32 sec) 
Heartbeat CPU 0 instructions: 610000001 cycles: 926092000 heartbeat IPC: 0.573691 cumulative IPC: 0.581939 (Simulation time: 0 hr 23 min 56 sec) 
Heartbeat CPU 0 instructions: 620000002 cycles: 949358916 heartbeat IPC: 0.429795 cumulative IPC: 0.578004 (Simulation time: 0 hr 24 min 22 sec) 
Heartbeat CPU 0 instructions: 630000002 cycles: 970844072 heartbeat IPC: 0.465438 cumulative IPC: 0.575379 (Simulation time: 0 hr 24 min 48 sec) 
Heartbeat CPU 0 instructions: 640000002 cycles: 992505679 heartbeat IPC: 0.461646 cumulative IPC: 0.572766 (Simulation time: 0 hr 25 min 15 sec) 
Heartbeat CPU 0 instructions: 650000000 cycles: 1011712369 heartbeat IPC: 0.520652 cumulative IPC: 0.571725 (Simulation time: 0 hr 25 min 39 sec) 
Heartbeat CPU 0 instructions: 660000000 cycles: 1029568910 heartbeat IPC: 0.560019 cumulative IPC: 0.571512 (Simulation time: 0 hr 26 min 3 sec) 
Heartbeat CPU 0 instructions: 670000003 cycles: 1046426276 heartbeat IPC: 0.593213 cumulative IPC: 0.571879 (Simulation time: 0 hr 26 min 26 sec) 
Heartbeat CPU 0 instructions: 680000000 cycles: 1061992806 heartbeat IPC: 0.642404 cumulative IPC: 0.572963 (Simulation time: 0 hr 26 min 49 sec) 
Heartbeat CPU 0 instructions: 690000001 cycles: 1073200291 heartbeat IPC: 0.892261 cumulative IPC: 0.57646 (Simulation time: 0 hr 27 min 10 sec) 
Heartbeat CPU 0 instructions: 700000001 cycles: 1086130368 heartbeat IPC: 0.773391 cumulative IPC: 0.578917 (Simulation time: 0 hr 27 min 33 sec) 
Heartbeat CPU 0 instructions: 710000000 cycles: 1102844419 heartbeat IPC: 0.598299 cumulative IPC: 0.579224 (Simulation time: 0 hr 27 min 57 sec) 
Heartbeat CPU 0 instructions: 720000002 cycles: 1125380191 heartbeat IPC: 0.443739 cumulative IPC: 0.576386 (Simulation time: 0 hr 28 min 23 sec) 
Heartbeat CPU 0 instructions: 730000000 cycles: 1146185550 heartbeat IPC: 0.480645 cumulative IPC: 0.574569 (Simulation time: 0 hr 28 min 49 sec) 
Heartbeat CPU 0 instructions: 740000000 cycles: 1167414418 heartbeat IPC: 0.471057 cumulative IPC: 0.572603 (Simulation time: 0 hr 29 min 14 sec) 
Heartbeat CPU 0 instructions: 750000002 cycles: 1190009041 heartbeat IPC: 0.442583 cumulative IPC: 0.570027 (Simulation time: 0 hr 29 min 40 sec) 
Heartbeat CPU 0 instructions: 760000000 cycles: 1212703962 heartbeat IPC: 0.440627 cumulative IPC: 0.567502 (Simulation time: 0 hr 30 min 7 sec) 
Heartbeat CPU 0 instructions: 770000000 cycles: 1232543047 heartbeat IPC: 0.504056 cumulative IPC: 0.566437 (Simulation time: 0 hr 30 min 31 sec) 
Heartbeat CPU 0 instructions: 780000002 cycles: 1250798521 heartbeat IPC: 0.547781 cumulative IPC: 0.566154 (Simulation time: 0 hr 30 min 55 sec) 
Heartbeat CPU 0 instructions: 790000000 cycles: 1267793829 heartbeat IPC: 0.588398 cumulative IPC: 0.566464 (Simulation time: 0 hr 31 min 17 sec) 
Heartbeat CPU 0 instructions: 800000002 cycles: 1280693870 heartbeat IPC: 0.775191 cumulative IPC: 0.568652 (Simulation time: 0 hr 31 min 39 sec) 
Heartbeat CPU 0 instructions: 810000000 cycles: 1296981901 heartbeat IPC: 0.613948 cumulative IPC: 0.569243 (Simulation time: 0 hr 32 min 3 sec) 
Heartbeat CPU 0 instructions: 820000002 cycles: 1319420661 heartbeat IPC: 0.445658 cumulative IPC: 0.567059 (Simulation time: 0 hr 32 min 29 sec) 
Heartbeat CPU 0 instructions: 830000000 cycles: 1339580646 heartbeat IPC: 0.496032 cumulative IPC: 0.565949 (Simulation time: 0 hr 32 min 55 sec) 
Heartbeat CPU 0 instructions: 840000000 cycles: 1361518631 heartbeat IPC: 0.45583 cumulative IPC: 0.564107 (Simulation time: 0 hr 33 min 21 sec) 
Heartbeat CPU 0 instructions: 850000001 cycles: 1380482995 heartbeat IPC: 0.527305 cumulative IPC: 0.563583 (Simulation time: 0 hr 33 min 45 sec) 
Heartbeat CPU 0 instructions: 860000001 cycles: 1398587923 heartbeat IPC: 0.552336 cumulative IPC: 0.563432 (Simulation time: 0 hr 34 min 10 sec) 
Heartbeat CPU 0 instructions: 870000001 cycles: 1419055021 heartbeat IPC: 0.488589 cumulative IPC: 0.562313 (Simulation time: 0 hr 34 min 34 sec) 
Heartbeat CPU 0 instructions: 880000000 cycles: 1437433519 heartbeat IPC: 0.544114 cumulative IPC: 0.562072 (Simulation time: 0 hr 34 min 57 sec) 
Heartbeat CPU 0 instructions: 890000000 cycles: 1453375154 heartbeat IPC: 0.627288 cumulative IPC: 0.562813 (Simulation time: 0 hr 35 min 21 sec) 
Heartbeat CPU 0 instructions: 900000001 cycles: 1476554665 heartbeat IPC: 0.431416 cumulative IPC: 0.560678 (Simulation time: 0 hr 35 min 47 sec) 
Heartbeat CPU 0 instructions: 910000000 cycles: 1496441338 heartbeat IPC: 0.502849 cumulative IPC: 0.559883 (Simulation time: 0 hr 36 min 12 sec) 
Heartbeat CPU 0 instructions: 920000001 cycles: 1514672462 heartbeat IPC: 0.548513 cumulative IPC: 0.559742 (Simulation time: 0 hr 36 min 35 sec) 
Heartbeat CPU 0 instructions: 930000000 cycles: 1529602352 heartbeat IPC: 0.669797 cumulative IPC: 0.560852 (Simulation time: 0 hr 36 min 57 sec) 
Heartbeat CPU 0 instructions: 940000002 cycles: 1548751385 heartbeat IPC: 0.52222 cumulative IPC: 0.560359 (Simulation time: 0 hr 37 min 22 sec) 
Heartbeat CPU 0 instructions: 950000002 cycles: 1568812137 heartbeat IPC: 0.498486 cumulative IPC: 0.559542 (Simulation time: 0 hr 37 min 47 sec) 
Heartbeat CPU 0 instructions: 960000001 cycles: 1589617927 heartbeat IPC: 0.480635 cumulative IPC: 0.558475 (Simulation time: 0 hr 38 min 13 sec) 
Heartbeat CPU 0 instructions: 970000001 cycles: 1609070989 heartbeat IPC: 0.514058 cumulative IPC: 0.557921 (Simulation time: 0 hr 38 min 37 sec) 
Heartbeat CPU 0 instructions: 980000000 cycles: 1627022049 heartbeat IPC: 0.55707 cumulative IPC: 0.557912 (Simulation time: 0 hr 39 min 0 sec) 
Heartbeat CPU 0 instructions: 990000000 cycles: 1644011568 heartbeat IPC: 0.588598 cumulative IPC: 0.558239 (Simulation time: 0 hr 39 min 23 sec) 
Heartbeat CPU 0 instructions: 1000000003 cycles: 1657113447 heartbeat IPC: 0.76325 cumulative IPC: 0.55991 (Simulation time: 0 hr 39 min 44 sec) 
Heartbeat CPU 0 instructions: 1010000001 cycles: 1670999241 heartbeat IPC: 0.72016 cumulative IPC: 0.561282 (Simulation time: 0 hr 40 min 6 sec) 
Heartbeat CPU 0 instructions: 1020000002 cycles: 1692155855 heartbeat IPC: 0.472665 cumulative IPC: 0.560141 (Simulation time: 0 hr 40 min 32 sec) 
Heartbeat CPU 0 instructions: 1030000000 cycles: 1712427159 heartbeat IPC: 0.493308 cumulative IPC: 0.559326 (Simulation time: 0 hr 40 min 56 sec) 
Heartbeat CPU 0 instructions: 1040000000 cycles: 1730293174 heartbeat IPC: 0.559722 cumulative IPC: 0.55933 (Simulation time: 0 hr 41 min 19 sec) 
Heartbeat CPU 0 instructions: 1050000000 cycles: 1748367780 heartbeat IPC: 0.553262 cumulative IPC: 0.559266 (Simulation time: 0 hr 41 min 45 sec) 
Heartbeat CPU 0 instructions: 1060000002 cycles: 1769140724 heartbeat IPC: 0.481396 cumulative IPC: 0.558325 (Simulation time: 0 hr 42 min 10 sec) 
Heartbeat CPU 0 instructions: 1070000003 cycles: 1787495941 heartbeat IPC: 0.544804 cumulative IPC: 0.558182 (Simulation time: 0 hr 42 min 33 sec) 
Heartbeat CPU 0 instructions: 1080000001 cycles: 1802683671 heartbeat IPC: 0.658426 cumulative IPC: 0.559051 (Simulation time: 0 hr 42 min 56 sec) 
Heartbeat CPU 0 instructions: 1090000001 cycles: 1823992014 heartbeat IPC: 0.4693 cumulative IPC: 0.557973 (Simulation time: 0 hr 43 min 22 sec) 
Heartbeat CPU 0 instructions: 1100000000 cycles: 1843138644 heartbeat IPC: 0.522285 cumulative IPC: 0.557592 (Simulation time: 0 hr 43 min 46 sec) 
Finished CPU 0 instructions: 1000000000 cycles: 1793427120 cumulative IPC: 0.557592 (Simulation time: 0 hr 43 min 46 sec) 

ChampSim completed all CPUs

Region of Interest Statistics

CPU 0 cumulative IPC: 0.557592 instructions: 1000000000 cycles: 1793427120
L1D TOTAL     ACCESS:  234891826  HIT:  182209012  MISS:   52682814
L1D LOAD      ACCESS:  168188510  HIT:  117177031  MISS:   51011479
L1D RFO       ACCESS:   66703316  HIT:   65031981  MISS:    1671335
L1D PREFETCH  ACCESS:          0  HIT:          0  MISS:          0
L1D WRITEBACK ACCESS:          0  HIT:          0  MISS:          0
L1D PREFETCH  REQUESTED:          0  ISSUED:          0  USEFUL:          0  USELESS:          0
L1D AVERAGE MISS LATENCY: 33.045 cycles
L1I TOTAL     ACCESS:  218906254  HIT:  216445565  MISS:    2460689
L1I LOAD      ACCESS:  218906254  HIT:  216445565  MISS:    2460689
L1I RFO       ACCESS:          0  HIT:          0  MISS:          0
L1I PREFETCH  ACCESS:          0  HIT:          0  MISS:          0
L1I WRITEBACK ACCESS:          0  HIT:          0  MISS:          0
L1I PREFETCH  REQUESTED:          0  ISSUED:          0  USEFUL:          0  USELESS:          0
L1I AVERAGE MISS LATENCY: 18.4804 cycles
L2C TOTAL     ACCESS:   57894115  HIT:   37859457  MISS:   20034658
L2C LOAD      ACCESS:   53471483  HIT:   34761345  MISS:   18710138
L2C RFO       ACCESS:    1671284  HIT:     346918  MISS:    1324366
L2C PREFETCH  ACCESS:          0  HIT:          0  MISS:          0
L2C WRITEBACK ACCESS:    2751348  HIT:    2751194  MISS:        154
L2C PREFETCH  REQUESTED:          0  ISSUED:          0  USEFUL:          0  USELESS:          0
L2C AVERAGE MISS LATENCY: 52.8986 cycles
LLC TOTAL     ACCESS:   21822584  HIT:   20329582  MISS:    1493002
LLC LOAD      ACCESS:   18710070  HIT:   18452838  MISS:     257232
LLC RFO       ACCESS:    1324363  HIT:     251950  MISS:    1072413
LLC PREFETCH  ACCESS:          0  HIT:          0  MISS:          0
LLC WRITEBACK ACCESS:    1788151  HIT:    1624794  MISS:     163357
LLC PREFETCH  REQUESTED:          0  ISSUED:          0  USEFUL:          0  USELESS:          0
LLC AVERAGE MISS LATENCY: 145.415 cycles
Major fault: 0 Minor fault: 6208
==============================
Perceptron RRIP Stats:
   Num Updates:          621591
   Num Primary Trains:   8243
   Num Secondary Trains: 8599
==============================
primary_perceptron #0: 1 3 3 -1 -7 -5 3 -1 -3 1 -7 -1 1 -3 -1 -13 
secondary_perceptron #0: -1 3 3 -1 -7 -7 5 -1 -1 3 -5 1 3 -3 -5 -1 -3 1 -5 1 -15 


DRAM Statistics
 CHANNEL 0
 RQ ROW_BUFFER_HIT:     582098  ROW_BUFFER_MISS:     747534
 DBUS_CONGESTED:    1093559
 WQ ROW_BUFFER_HIT:     264120  ROW_BUFFER_MISS:     943008  FULL:        241

 AVG_CONGESTED_CYCLE: 6

CPU 0 Branch Prediction Accuracy: 97.9229% MPKI: 5.94568 Average ROB Occupancy at Mispredict: 44.4164

Branch types
NOT_BRANCH: 713754972 71.3755%
BRANCH_DIRECT_JUMP: 7870399 0.78704%
BRANCH_INDIRECT: 2818396 0.28184%
BRANCH_CONDITIONAL: 244384419 24.4384%
BRANCH_DIRECT_CALL: 9876498 0.98765%
BRANCH_INDIRECT_CALL: 5709278 0.570928%
BRANCH_RETURN: 15585777 1.55858%
BRANCH_OTHER: 0 0%

