
*** ChampSim Multicore Out-of-Order Simulator ***

Warmup Instructions: 100000000
Simulation Instructions: 1000000000
Number of CPUs: 1
LLC sets: 2048
LLC ways: 16
Off-chip DRAM Size: 4096 MB Channels: 1 Width: 64-bit Data Rate: 3200 MT/s

CPU 0 runs /scratch/user/kevin.weston/dpc3-traces/623.champsimtrace.xz
CPU 0 Bimodal branch predictor
Heartbeat CPU 0 instructions: 10000002 cycles: 5072704 heartbeat IPC: 1.97134 cumulative IPC: 1.97134 (Simulation time: 0 hr 0 min 23 sec) 
Heartbeat CPU 0 instructions: 20000001 cycles: 9526461 heartbeat IPC: 2.2453 cumulative IPC: 2.09942 (Simulation time: 0 hr 0 min 43 sec) 
Heartbeat CPU 0 instructions: 30000000 cycles: 14650798 heartbeat IPC: 1.95147 cumulative IPC: 2.04767 (Simulation time: 0 hr 1 min 6 sec) 
Heartbeat CPU 0 instructions: 40000002 cycles: 19944757 heartbeat IPC: 1.88895 cumulative IPC: 2.00554 (Simulation time: 0 hr 1 min 29 sec) 
Heartbeat CPU 0 instructions: 50000002 cycles: 25141206 heartbeat IPC: 1.92439 cumulative IPC: 1.98877 (Simulation time: 0 hr 1 min 52 sec) 
Heartbeat CPU 0 instructions: 60000003 cycles: 29685460 heartbeat IPC: 2.20058 cumulative IPC: 2.02119 (Simulation time: 0 hr 2 min 13 sec) 
Heartbeat CPU 0 instructions: 70000002 cycles: 34149486 heartbeat IPC: 2.24013 cumulative IPC: 2.04981 (Simulation time: 0 hr 2 min 33 sec) 
Heartbeat CPU 0 instructions: 80000000 cycles: 39390119 heartbeat IPC: 1.90817 cumulative IPC: 2.03097 (Simulation time: 0 hr 2 min 56 sec) 
Heartbeat CPU 0 instructions: 90000000 cycles: 44505497 heartbeat IPC: 1.95489 cumulative IPC: 2.02222 (Simulation time: 0 hr 3 min 19 sec) 
Heartbeat CPU 0 instructions: 100000001 cycles: 49808374 heartbeat IPC: 1.88577 cumulative IPC: 2.00769 (Simulation time: 0 hr 3 min 42 sec) 

Warmup complete CPU 0 instructions: 100000001 cycles: 49808374 (Simulation time: 0 hr 3 min 42 sec) 

Heartbeat CPU 0 instructions: 110000000 cycles: 69474592 heartbeat IPC: 0.508486 cumulative IPC: 0.508486 (Simulation time: 0 hr 4 min 5 sec) 
Heartbeat CPU 0 instructions: 120000003 cycles: 87486740 heartbeat IPC: 0.555181 cumulative IPC: 0.530809 (Simulation time: 0 hr 4 min 26 sec) 
Heartbeat CPU 0 instructions: 130000000 cycles: 102144904 heartbeat IPC: 0.682213 cumulative IPC: 0.573213 (Simulation time: 0 hr 4 min 47 sec) 
Heartbeat CPU 0 instructions: 140000000 cycles: 120498203 heartbeat IPC: 0.544861 cumulative IPC: 0.565852 (Simulation time: 0 hr 5 min 10 sec) 
Heartbeat CPU 0 instructions: 150000000 cycles: 142462203 heartbeat IPC: 0.45529 cumulative IPC: 0.539643 (Simulation time: 0 hr 5 min 34 sec) 
Heartbeat CPU 0 instructions: 160000000 cycles: 162912561 heartbeat IPC: 0.488989 cumulative IPC: 0.530484 (Simulation time: 0 hr 5 min 58 sec) 
Heartbeat CPU 0 instructions: 170000000 cycles: 184728532 heartbeat IPC: 0.45838 cumulative IPC: 0.518825 (Simulation time: 0 hr 6 min 22 sec) 
Heartbeat CPU 0 instructions: 180000001 cycles: 204837931 heartbeat IPC: 0.49728 cumulative IPC: 0.516031 (Simulation time: 0 hr 6 min 45 sec) 
Heartbeat CPU 0 instructions: 190000000 cycles: 223106723 heartbeat IPC: 0.547382 cumulative IPC: 0.519336 (Simulation time: 0 hr 7 min 7 sec) 
Heartbeat CPU 0 instructions: 200000002 cycles: 238747794 heartbeat IPC: 0.639343 cumulative IPC: 0.52927 (Simulation time: 0 hr 7 min 28 sec) 
Heartbeat CPU 0 instructions: 210000001 cycles: 253654982 heartbeat IPC: 0.670817 cumulative IPC: 0.539621 (Simulation time: 0 hr 7 min 49 sec) 
Heartbeat CPU 0 instructions: 220000000 cycles: 276311219 heartbeat IPC: 0.44138 cumulative IPC: 0.529795 (Simulation time: 0 hr 8 min 14 sec) 
Heartbeat CPU 0 instructions: 230000001 cycles: 295968925 heartbeat IPC: 0.508706 cumulative IPC: 0.528111 (Simulation time: 0 hr 8 min 37 sec) 
Heartbeat CPU 0 instructions: 240000001 cycles: 314017559 heartbeat IPC: 0.554059 cumulative IPC: 0.529883 (Simulation time: 0 hr 8 min 59 sec) 
Heartbeat CPU 0 instructions: 250000002 cycles: 331024785 heartbeat IPC: 0.587985 cumulative IPC: 0.533397 (Simulation time: 0 hr 9 min 20 sec) 
Heartbeat CPU 0 instructions: 260000001 cycles: 346674898 heartbeat IPC: 0.638973 cumulative IPC: 0.538963 (Simulation time: 0 hr 9 min 42 sec) 
Heartbeat CPU 0 instructions: 270000001 cycles: 358356005 heartbeat IPC: 0.856083 cumulative IPC: 0.550968 (Simulation time: 0 hr 10 min 2 sec) 
Heartbeat CPU 0 instructions: 280000001 cycles: 371828159 heartbeat IPC: 0.742272 cumulative IPC: 0.558972 (Simulation time: 0 hr 10 min 23 sec) 
Heartbeat CPU 0 instructions: 290000003 cycles: 389197798 heartbeat IPC: 0.575717 cumulative IPC: 0.559829 (Simulation time: 0 hr 10 min 46 sec) 
Heartbeat CPU 0 instructions: 300000001 cycles: 413336835 heartbeat IPC: 0.414267 cumulative IPC: 0.550163 (Simulation time: 0 hr 11 min 11 sec) 
Heartbeat CPU 0 instructions: 310000001 cycles: 432619570 heartbeat IPC: 0.518599 cumulative IPC: 0.548573 (Simulation time: 0 hr 11 min 33 sec) 
Heartbeat CPU 0 instructions: 320000000 cycles: 453694854 heartbeat IPC: 0.474489 cumulative IPC: 0.544708 (Simulation time: 0 hr 11 min 58 sec) 
Heartbeat CPU 0 instructions: 330000000 cycles: 473640421 heartbeat IPC: 0.501365 cumulative IPC: 0.542668 (Simulation time: 0 hr 12 min 21 sec) 
Heartbeat CPU 0 instructions: 340000000 cycles: 491825997 heartbeat IPC: 0.549886 cumulative IPC: 0.542965 (Simulation time: 0 hr 12 min 43 sec) 
Heartbeat CPU 0 instructions: 350000003 cycles: 508940867 heartbeat IPC: 0.584287 cumulative IPC: 0.544505 (Simulation time: 0 hr 13 min 5 sec) 
Heartbeat CPU 0 instructions: 360000000 cycles: 525326349 heartbeat IPC: 0.610296 cumulative IPC: 0.546772 (Simulation time: 0 hr 13 min 26 sec) 
Heartbeat CPU 0 instructions: 370000001 cycles: 541067052 heartbeat IPC: 0.635296 cumulative IPC: 0.549609 (Simulation time: 0 hr 13 min 47 sec) 
Heartbeat CPU 0 instructions: 380000002 cycles: 552402130 heartbeat IPC: 0.882217 cumulative IPC: 0.55711 (Simulation time: 0 hr 14 min 8 sec) 
Heartbeat CPU 0 instructions: 390000001 cycles: 563856480 heartbeat IPC: 0.873031 cumulative IPC: 0.56415 (Simulation time: 0 hr 14 min 29 sec) 
Heartbeat CPU 0 instructions: 400000001 cycles: 576858805 heartbeat IPC: 0.769093 cumulative IPC: 0.569205 (Simulation time: 0 hr 14 min 50 sec) 
Heartbeat CPU 0 instructions: 410000000 cycles: 592310100 heartbeat IPC: 0.647195 cumulative IPC: 0.571427 (Simulation time: 0 hr 15 min 12 sec) 
Heartbeat CPU 0 instructions: 420000000 cycles: 614930495 heartbeat IPC: 0.442079 cumulative IPC: 0.566249 (Simulation time: 0 hr 15 min 36 sec) 
Heartbeat CPU 0 instructions: 430000003 cycles: 635687816 heartbeat IPC: 0.481758 cumulative IPC: 0.563256 (Simulation time: 0 hr 16 min 0 sec) 
Heartbeat CPU 0 instructions: 440000000 cycles: 654256491 heartbeat IPC: 0.538541 cumulative IPC: 0.562497 (Simulation time: 0 hr 16 min 22 sec) 
Heartbeat CPU 0 instructions: 450000001 cycles: 670908289 heartbeat IPC: 0.600536 cumulative IPC: 0.563516 (Simulation time: 0 hr 16 min 43 sec) 
Heartbeat CPU 0 instructions: 460000001 cycles: 684833496 heartbeat IPC: 0.718122 cumulative IPC: 0.566907 (Simulation time: 0 hr 17 min 4 sec) 
Heartbeat CPU 0 instructions: 470000001 cycles: 707214553 heartbeat IPC: 0.446806 cumulative IPC: 0.562818 (Simulation time: 0 hr 17 min 28 sec) 
Heartbeat CPU 0 instructions: 480000001 cycles: 727057737 heartbeat IPC: 0.503951 cumulative IPC: 0.561093 (Simulation time: 0 hr 17 min 51 sec) 
Heartbeat CPU 0 instructions: 490000002 cycles: 744233548 heartbeat IPC: 0.582214 cumulative IPC: 0.561616 (Simulation time: 0 hr 18 min 13 sec) 
Heartbeat CPU 0 instructions: 500000000 cycles: 764810974 heartbeat IPC: 0.485969 cumulative IPC: 0.559439 (Simulation time: 0 hr 18 min 37 sec) 
Heartbeat CPU 0 instructions: 510000000 cycles: 785551651 heartbeat IPC: 0.482144 cumulative IPC: 0.55726 (Simulation time: 0 hr 19 min 1 sec) 
Heartbeat CPU 0 instructions: 520000003 cycles: 804246196 heartbeat IPC: 0.534916 cumulative IPC: 0.556706 (Simulation time: 0 hr 19 min 23 sec) 
Heartbeat CPU 0 instructions: 530000000 cycles: 821739186 heartbeat IPC: 0.571657 cumulative IPC: 0.557045 (Simulation time: 0 hr 19 min 45 sec) 
Heartbeat CPU 0 instructions: 540000001 cycles: 838343053 heartbeat IPC: 0.602269 cumulative IPC: 0.557997 (Simulation time: 0 hr 20 min 7 sec) 
Heartbeat CPU 0 instructions: 550000000 cycles: 854296487 heartbeat IPC: 0.626824 cumulative IPC: 0.559362 (Simulation time: 0 hr 20 min 28 sec) 
Heartbeat CPU 0 instructions: 560000001 cycles: 869753160 heartbeat IPC: 0.64697 cumulative IPC: 0.561013 (Simulation time: 0 hr 20 min 49 sec) 
Heartbeat CPU 0 instructions: 570000000 cycles: 880445327 heartbeat IPC: 0.935264 cumulative IPC: 0.565831 (Simulation time: 0 hr 21 min 10 sec) 
Heartbeat CPU 0 instructions: 580000001 cycles: 891548191 heartbeat IPC: 0.900669 cumulative IPC: 0.570247 (Simulation time: 0 hr 21 min 30 sec) 
Heartbeat CPU 0 instructions: 590000001 cycles: 904076944 heartbeat IPC: 0.798164 cumulative IPC: 0.57359 (Simulation time: 0 hr 21 min 51 sec) 
Heartbeat CPU 0 instructions: 600000001 cycles: 918309618 heartbeat IPC: 0.702609 cumulative IPC: 0.575704 (Simulation time: 0 hr 22 min 13 sec) 
Heartbeat CPU 0 instructions: 610000001 cycles: 936002169 heartbeat IPC: 0.56521 cumulative IPC: 0.575495 (Simulation time: 0 hr 22 min 36 sec) 
Heartbeat CPU 0 instructions: 620000002 cycles: 959480439 heartbeat IPC: 0.425926 cumulative IPC: 0.571635 (Simulation time: 0 hr 23 min 0 sec) 
Heartbeat CPU 0 instructions: 630000002 cycles: 981302261 heartbeat IPC: 0.458257 cumulative IPC: 0.568978 (Simulation time: 0 hr 23 min 25 sec) 
Heartbeat CPU 0 instructions: 640000002 cycles: 1003386077 heartbeat IPC: 0.45282 cumulative IPC: 0.566288 (Simulation time: 0 hr 23 min 49 sec) 
Heartbeat CPU 0 instructions: 650000000 cycles: 1022734181 heartbeat IPC: 0.516846 cumulative IPC: 0.565305 (Simulation time: 0 hr 24 min 12 sec) 
Heartbeat CPU 0 instructions: 660000000 cycles: 1040629931 heartbeat IPC: 0.558792 cumulative IPC: 0.565188 (Simulation time: 0 hr 24 min 34 sec) 
Heartbeat CPU 0 instructions: 670000003 cycles: 1057492126 heartbeat IPC: 0.593043 cumulative IPC: 0.565654 (Simulation time: 0 hr 24 min 55 sec) 
Heartbeat CPU 0 instructions: 680000000 cycles: 1073044700 heartbeat IPC: 0.64298 cumulative IPC: 0.566829 (Simulation time: 0 hr 25 min 16 sec) 
Heartbeat CPU 0 instructions: 690000001 cycles: 1084199925 heartbeat IPC: 0.896441 cumulative IPC: 0.570384 (Simulation time: 0 hr 25 min 37 sec) 
Heartbeat CPU 0 instructions: 700000001 cycles: 1097505283 heartbeat IPC: 0.751577 cumulative IPC: 0.572685 (Simulation time: 0 hr 25 min 58 sec) 
Heartbeat CPU 0 instructions: 710000000 cycles: 1114626384 heartbeat IPC: 0.584075 cumulative IPC: 0.572868 (Simulation time: 0 hr 26 min 21 sec) 
Heartbeat CPU 0 instructions: 720000002 cycles: 1137396587 heartbeat IPC: 0.439171 cumulative IPC: 0.570069 (Simulation time: 0 hr 26 min 45 sec) 
Heartbeat CPU 0 instructions: 730000000 cycles: 1158467793 heartbeat IPC: 0.474581 cumulative IPC: 0.568254 (Simulation time: 0 hr 27 min 10 sec) 
Heartbeat CPU 0 instructions: 740000000 cycles: 1180188536 heartbeat IPC: 0.460389 cumulative IPC: 0.566181 (Simulation time: 0 hr 27 min 34 sec) 
Heartbeat CPU 0 instructions: 750000002 cycles: 1203386989 heartbeat IPC: 0.431063 cumulative IPC: 0.563464 (Simulation time: 0 hr 27 min 59 sec) 
Heartbeat CPU 0 instructions: 760000000 cycles: 1226701603 heartbeat IPC: 0.428915 cumulative IPC: 0.560799 (Simulation time: 0 hr 28 min 24 sec) 
Heartbeat CPU 0 instructions: 770000000 cycles: 1246784468 heartbeat IPC: 0.497937 cumulative IPC: 0.559744 (Simulation time: 0 hr 28 min 47 sec) 
Heartbeat CPU 0 instructions: 780000002 cycles: 1265130966 heartbeat IPC: 0.545063 cumulative IPC: 0.559522 (Simulation time: 0 hr 29 min 9 sec) 
Heartbeat CPU 0 instructions: 790000000 cycles: 1282183554 heartbeat IPC: 0.586421 cumulative IPC: 0.559894 (Simulation time: 0 hr 29 min 30 sec) 
Heartbeat CPU 0 instructions: 800000002 cycles: 1295083241 heartbeat IPC: 0.775213 cumulative IPC: 0.562125 (Simulation time: 0 hr 29 min 51 sec) 
Heartbeat CPU 0 instructions: 810000002 cycles: 1312086420 heartbeat IPC: 0.588125 cumulative IPC: 0.562475 (Simulation time: 0 hr 30 min 14 sec) 
Heartbeat CPU 0 instructions: 820000002 cycles: 1334888710 heartbeat IPC: 0.438552 cumulative IPC: 0.560276 (Simulation time: 0 hr 30 min 39 sec) 
Heartbeat CPU 0 instructions: 830000000 cycles: 1355361659 heartbeat IPC: 0.488449 cumulative IPC: 0.55915 (Simulation time: 0 hr 31 min 3 sec) 
Heartbeat CPU 0 instructions: 840000000 cycles: 1377658521 heartbeat IPC: 0.448494 cumulative IPC: 0.557292 (Simulation time: 0 hr 31 min 27 sec) 
Heartbeat CPU 0 instructions: 850000001 cycles: 1396889837 heartbeat IPC: 0.519985 cumulative IPC: 0.556759 (Simulation time: 0 hr 31 min 49 sec) 
Heartbeat CPU 0 instructions: 860000000 cycles: 1415689392 heartbeat IPC: 0.531927 cumulative IPC: 0.556417 (Simulation time: 0 hr 32 min 13 sec) 
Heartbeat CPU 0 instructions: 870000001 cycles: 1436540849 heartbeat IPC: 0.479583 cumulative IPC: 0.555262 (Simulation time: 0 hr 32 min 37 sec) 
Heartbeat CPU 0 instructions: 880000000 cycles: 1455070635 heartbeat IPC: 0.539672 cumulative IPC: 0.555057 (Simulation time: 0 hr 32 min 59 sec) 
Heartbeat CPU 0 instructions: 890000000 cycles: 1471453835 heartbeat IPC: 0.610381 cumulative IPC: 0.555694 (Simulation time: 0 hr 33 min 22 sec) 
Heartbeat CPU 0 instructions: 900000001 cycles: 1495343427 heartbeat IPC: 0.418592 cumulative IPC: 0.553428 (Simulation time: 0 hr 33 min 48 sec) 
Heartbeat CPU 0 instructions: 910000000 cycles: 1515557657 heartbeat IPC: 0.494701 cumulative IPC: 0.552618 (Simulation time: 0 hr 34 min 12 sec) 
Heartbeat CPU 0 instructions: 920000001 cycles: 1533942050 heartbeat IPC: 0.54394 cumulative IPC: 0.552511 (Simulation time: 0 hr 34 min 34 sec) 
Heartbeat CPU 0 instructions: 930000000 cycles: 1548994517 heartbeat IPC: 0.664343 cumulative IPC: 0.553634 (Simulation time: 0 hr 34 min 56 sec) 
Heartbeat CPU 0 instructions: 940000002 cycles: 1568973273 heartbeat IPC: 0.500532 cumulative IPC: 0.552935 (Simulation time: 0 hr 35 min 20 sec) 
Heartbeat CPU 0 instructions: 950000002 cycles: 1589437833 heartbeat IPC: 0.48865 cumulative IPC: 0.552081 (Simulation time: 0 hr 35 min 44 sec) 
Heartbeat CPU 0 instructions: 960000001 cycles: 1610585065 heartbeat IPC: 0.472875 cumulative IPC: 0.551008 (Simulation time: 0 hr 36 min 10 sec) 
Heartbeat CPU 0 instructions: 970000001 cycles: 1630285244 heartbeat IPC: 0.50761 cumulative IPC: 0.550467 (Simulation time: 0 hr 36 min 33 sec) 
Heartbeat CPU 0 instructions: 980000000 cycles: 1648327982 heartbeat IPC: 0.55424 cumulative IPC: 0.550509 (Simulation time: 0 hr 36 min 56 sec) 
Heartbeat CPU 0 instructions: 990000000 cycles: 1665334907 heartbeat IPC: 0.587996 cumulative IPC: 0.550904 (Simulation time: 0 hr 37 min 18 sec) 
Heartbeat CPU 0 instructions: 1000000000 cycles: 1678352203 heartbeat IPC: 0.768209 cumulative IPC: 0.552641 (Simulation time: 0 hr 37 min 38 sec) 
Heartbeat CPU 0 instructions: 1010000001 cycles: 1692422502 heartbeat IPC: 0.710717 cumulative IPC: 0.553995 (Simulation time: 0 hr 38 min 0 sec) 
Heartbeat CPU 0 instructions: 1020000002 cycles: 1713807225 heartbeat IPC: 0.467624 cumulative IPC: 0.552885 (Simulation time: 0 hr 38 min 25 sec) 
Heartbeat CPU 0 instructions: 1030000000 cycles: 1734359849 heartbeat IPC: 0.486556 cumulative IPC: 0.552076 (Simulation time: 0 hr 38 min 49 sec) 
Heartbeat CPU 0 instructions: 1040000000 cycles: 1752639696 heartbeat IPC: 0.547051 cumulative IPC: 0.552022 (Simulation time: 0 hr 39 min 11 sec) 
Heartbeat CPU 0 instructions: 1050000000 cycles: 1770952211 heartbeat IPC: 0.546075 cumulative IPC: 0.551959 (Simulation time: 0 hr 39 min 36 sec) 
Heartbeat CPU 0 instructions: 1060000002 cycles: 1792045271 heartbeat IPC: 0.47409 cumulative IPC: 0.551016 (Simulation time: 0 hr 40 min 0 sec) 
Heartbeat CPU 0 instructions: 1070000003 cycles: 1810567841 heartbeat IPC: 0.539882 cumulative IPC: 0.550899 (Simulation time: 0 hr 40 min 22 sec) 
Heartbeat CPU 0 instructions: 1080000001 cycles: 1826068202 heartbeat IPC: 0.645146 cumulative IPC: 0.551721 (Simulation time: 0 hr 40 min 44 sec) 
Heartbeat CPU 0 instructions: 1090000001 cycles: 1848163641 heartbeat IPC: 0.452582 cumulative IPC: 0.550503 (Simulation time: 0 hr 41 min 10 sec) 
Heartbeat CPU 0 instructions: 1100000000 cycles: 1867589445 heartbeat IPC: 0.514779 cumulative IPC: 0.550121 (Simulation time: 0 hr 41 min 34 sec) 
Finished CPU 0 instructions: 1000000000 cycles: 1817781072 cumulative IPC: 0.550121 (Simulation time: 0 hr 41 min 34 sec) 

ChampSim completed all CPUs

Region of Interest Statistics

CPU 0 cumulative IPC: 0.550121 instructions: 1000000000 cycles: 1817781072
L1D TOTAL     ACCESS:  235114270  HIT:  182431550  MISS:   52682720
L1D LOAD      ACCESS:  168392925  HIT:  117381537  MISS:   51011388
L1D RFO       ACCESS:   66721345  HIT:   65050013  MISS:    1671332
L1D PREFETCH  ACCESS:          0  HIT:          0  MISS:          0
L1D WRITEBACK ACCESS:          0  HIT:          0  MISS:          0
L1D PREFETCH  REQUESTED:          0  ISSUED:          0  USEFUL:          0  USELESS:          0
L1D AVERAGE MISS LATENCY: 33.8517 cycles
L1I TOTAL     ACCESS:  219381483  HIT:  216920794  MISS:    2460689
L1I LOAD      ACCESS:  219381483  HIT:  216920794  MISS:    2460689
L1I RFO       ACCESS:          0  HIT:          0  MISS:          0
L1I PREFETCH  ACCESS:          0  HIT:          0  MISS:          0
L1I WRITEBACK ACCESS:          0  HIT:          0  MISS:          0
L1I PREFETCH  REQUESTED:          0  ISSUED:          0  USEFUL:          0  USELESS:          0
L1I AVERAGE MISS LATENCY: 19.8671 cycles
L2C TOTAL     ACCESS:   57894048  HIT:   36749486  MISS:   21144562
L2C LOAD      ACCESS:   53471421  HIT:   33689289  MISS:   19782132
L2C RFO       ACCESS:    1671279  HIT:     309028  MISS:    1362251
L2C PREFETCH  ACCESS:          0  HIT:          0  MISS:          0
L2C WRITEBACK ACCESS:    2751348  HIT:    2751169  MISS:        179
L2C PREFETCH  REQUESTED:          0  ISSUED:          0  USEFUL:          0  USELESS:          0
L2C AVERAGE MISS LATENCY: 52.2956 cycles
LLC TOTAL     ACCESS:   23028088  HIT:   21718628  MISS:    1309460
LLC LOAD      ACCESS:   19782096  HIT:   19552336  MISS:     229760
LLC RFO       ACCESS:    1362245  HIT:     286738  MISS:    1075507
LLC PREFETCH  ACCESS:          0  HIT:          0  MISS:          0
LLC WRITEBACK ACCESS:    1883747  HIT:    1879554  MISS:       4193
LLC PREFETCH  REQUESTED:          0  ISSUED:          0  USEFUL:          0  USELESS:          0
LLC AVERAGE MISS LATENCY: 162.786 cycles
Major fault: 0 Minor fault: 6208

DRAM Statistics
 CHANNEL 0
 RQ ROW_BUFFER_HIT:     582073  ROW_BUFFER_MISS:     723184
 DBUS_CONGESTED:    1093917
 WQ ROW_BUFFER_HIT:     223870  ROW_BUFFER_MISS:     988475  FULL:          0

 AVG_CONGESTED_CYCLE: 6

CPU 0 Branch Prediction Accuracy: 97.9229% MPKI: 5.94568 Average ROB Occupancy at Mispredict: 44.3047

Branch types
NOT_BRANCH: 713754972 71.3755%
BRANCH_DIRECT_JUMP: 7870399 0.78704%
BRANCH_INDIRECT: 2818396 0.28184%
BRANCH_CONDITIONAL: 244384419 24.4384%
BRANCH_DIRECT_CALL: 9876498 0.98765%
BRANCH_INDIRECT_CALL: 5709278 0.570928%
BRANCH_RETURN: 15585777 1.55858%
BRANCH_OTHER: 0 0%

