
*** ChampSim Multicore Out-of-Order Simulator ***

Warmup Instructions: 100000000
Simulation Instructions: 1000000000
Number of CPUs: 1
LLC sets: 2048
LLC ways: 16
Off-chip DRAM Size: 4096 MB Channels: 1 Width: 64-bit Data Rate: 3200 MT/s

CPU 0 runs /scratch/user/kevin.weston/dpc3-traces/623.champsimtrace.xz
CPU 0 Bimodal branch predictor
Initialize SRRIP state
Heartbeat CPU 0 instructions: 10000002 cycles: 5072704 heartbeat IPC: 1.97134 cumulative IPC: 1.97134 (Simulation time: 0 hr 0 min 23 sec) 
Heartbeat CPU 0 instructions: 20000001 cycles: 9526461 heartbeat IPC: 2.2453 cumulative IPC: 2.09942 (Simulation time: 0 hr 0 min 44 sec) 
Heartbeat CPU 0 instructions: 30000000 cycles: 14651210 heartbeat IPC: 1.95131 cumulative IPC: 2.04761 (Simulation time: 0 hr 1 min 7 sec) 
Heartbeat CPU 0 instructions: 40000002 cycles: 19945304 heartbeat IPC: 1.8889 cumulative IPC: 2.00548 (Simulation time: 0 hr 1 min 31 sec) 
Heartbeat CPU 0 instructions: 50000002 cycles: 25141806 heartbeat IPC: 1.92437 cumulative IPC: 1.98872 (Simulation time: 0 hr 1 min 54 sec) 
Heartbeat CPU 0 instructions: 60000003 cycles: 29686093 heartbeat IPC: 2.20057 cumulative IPC: 2.02115 (Simulation time: 0 hr 2 min 15 sec) 
Heartbeat CPU 0 instructions: 70000002 cycles: 34150142 heartbeat IPC: 2.24012 cumulative IPC: 2.04977 (Simulation time: 0 hr 2 min 36 sec) 
Heartbeat CPU 0 instructions: 80000000 cycles: 39391426 heartbeat IPC: 1.90793 cumulative IPC: 2.0309 (Simulation time: 0 hr 3 min 0 sec) 
Heartbeat CPU 0 instructions: 90000000 cycles: 44506836 heartbeat IPC: 1.95488 cumulative IPC: 2.02216 (Simulation time: 0 hr 3 min 23 sec) 
Heartbeat CPU 0 instructions: 100000001 cycles: 49809767 heartbeat IPC: 1.88575 cumulative IPC: 2.00764 (Simulation time: 0 hr 3 min 46 sec) 

Warmup complete CPU 0 instructions: 100000001 cycles: 49809767 (Simulation time: 0 hr 3 min 46 sec) 

Heartbeat CPU 0 instructions: 110000000 cycles: 69499764 heartbeat IPC: 0.507872 cumulative IPC: 0.507872 (Simulation time: 0 hr 4 min 9 sec) 
Heartbeat CPU 0 instructions: 120000003 cycles: 87515932 heartbeat IPC: 0.555057 cumulative IPC: 0.530417 (Simulation time: 0 hr 4 min 31 sec) 
Heartbeat CPU 0 instructions: 130000000 cycles: 102182257 heartbeat IPC: 0.681834 cumulative IPC: 0.57282 (Simulation time: 0 hr 4 min 52 sec) 
Heartbeat CPU 0 instructions: 140000000 cycles: 120521717 heartbeat IPC: 0.545272 cumulative IPC: 0.565675 (Simulation time: 0 hr 5 min 16 sec) 
Heartbeat CPU 0 instructions: 150000000 cycles: 142563010 heartbeat IPC: 0.453694 cumulative IPC: 0.539065 (Simulation time: 0 hr 5 min 40 sec) 
Heartbeat CPU 0 instructions: 160000000 cycles: 163157327 heartbeat IPC: 0.485571 cumulative IPC: 0.529345 (Simulation time: 0 hr 6 min 5 sec) 
Heartbeat CPU 0 instructions: 170000000 cycles: 184998812 heartbeat IPC: 0.457844 cumulative IPC: 0.517793 (Simulation time: 0 hr 6 min 30 sec) 
Heartbeat CPU 0 instructions: 180000001 cycles: 205120185 heartbeat IPC: 0.496984 cumulative IPC: 0.515097 (Simulation time: 0 hr 6 min 53 sec) 
Heartbeat CPU 0 instructions: 190000000 cycles: 223391042 heartbeat IPC: 0.54732 cumulative IPC: 0.518489 (Simulation time: 0 hr 7 min 15 sec) 
Heartbeat CPU 0 instructions: 200000002 cycles: 239041037 heartbeat IPC: 0.638978 cumulative IPC: 0.528454 (Simulation time: 0 hr 7 min 36 sec) 
Heartbeat CPU 0 instructions: 210000001 cycles: 253945256 heartbeat IPC: 0.670951 cumulative IPC: 0.538858 (Simulation time: 0 hr 7 min 59 sec) 
Heartbeat CPU 0 instructions: 220000000 cycles: 276655922 heartbeat IPC: 0.440322 cumulative IPC: 0.528993 (Simulation time: 0 hr 8 min 24 sec) 
Heartbeat CPU 0 instructions: 230000001 cycles: 296322790 heartbeat IPC: 0.508469 cumulative IPC: 0.527355 (Simulation time: 0 hr 8 min 47 sec) 
Heartbeat CPU 0 instructions: 240000001 cycles: 314376968 heartbeat IPC: 0.553888 cumulative IPC: 0.529166 (Simulation time: 0 hr 9 min 9 sec) 
Heartbeat CPU 0 instructions: 250000002 cycles: 331392548 heartbeat IPC: 0.587697 cumulative IPC: 0.532703 (Simulation time: 0 hr 9 min 32 sec) 
Heartbeat CPU 0 instructions: 260000001 cycles: 347049950 heartbeat IPC: 0.638676 cumulative IPC: 0.538285 (Simulation time: 0 hr 9 min 54 sec) 
Heartbeat CPU 0 instructions: 270000001 cycles: 358739108 heartbeat IPC: 0.855494 cumulative IPC: 0.550288 (Simulation time: 0 hr 10 min 15 sec) 
Heartbeat CPU 0 instructions: 280000001 cycles: 372202427 heartbeat IPC: 0.742759 cumulative IPC: 0.558325 (Simulation time: 0 hr 10 min 37 sec) 
Heartbeat CPU 0 instructions: 290000003 cycles: 389568331 heartbeat IPC: 0.575841 cumulative IPC: 0.559221 (Simulation time: 0 hr 11 min 0 sec) 
Heartbeat CPU 0 instructions: 300000001 cycles: 413878559 heartbeat IPC: 0.411349 cumulative IPC: 0.549347 (Simulation time: 0 hr 11 min 25 sec) 
Heartbeat CPU 0 instructions: 310000001 cycles: 433164230 heartbeat IPC: 0.51852 cumulative IPC: 0.547796 (Simulation time: 0 hr 11 min 49 sec) 
Heartbeat CPU 0 instructions: 320000000 cycles: 454314447 heartbeat IPC: 0.472808 cumulative IPC: 0.543875 (Simulation time: 0 hr 12 min 14 sec) 
Heartbeat CPU 0 instructions: 330000000 cycles: 474249269 heartbeat IPC: 0.501635 cumulative IPC: 0.541891 (Simulation time: 0 hr 12 min 37 sec) 
Heartbeat CPU 0 instructions: 340000000 cycles: 492444111 heartbeat IPC: 0.549606 cumulative IPC: 0.542208 (Simulation time: 0 hr 13 min 0 sec) 
Heartbeat CPU 0 instructions: 350000003 cycles: 509569072 heartbeat IPC: 0.583943 cumulative IPC: 0.543763 (Simulation time: 0 hr 13 min 22 sec) 
Heartbeat CPU 0 instructions: 360000000 cycles: 525964635 heartbeat IPC: 0.609921 cumulative IPC: 0.546041 (Simulation time: 0 hr 13 min 44 sec) 
Heartbeat CPU 0 instructions: 370000001 cycles: 541713743 heartbeat IPC: 0.634957 cumulative IPC: 0.548888 (Simulation time: 0 hr 14 min 5 sec) 
Heartbeat CPU 0 instructions: 380000002 cycles: 553053045 heartbeat IPC: 0.881889 cumulative IPC: 0.556391 (Simulation time: 0 hr 14 min 26 sec) 
Heartbeat CPU 0 instructions: 390000001 cycles: 564503364 heartbeat IPC: 0.873338 cumulative IPC: 0.563442 (Simulation time: 0 hr 14 min 48 sec) 
Heartbeat CPU 0 instructions: 400000001 cycles: 577504140 heartbeat IPC: 0.769185 cumulative IPC: 0.568511 (Simulation time: 0 hr 15 min 9 sec) 
Heartbeat CPU 0 instructions: 410000000 cycles: 592951493 heartbeat IPC: 0.64736 cumulative IPC: 0.570753 (Simulation time: 0 hr 15 min 32 sec) 
Heartbeat CPU 0 instructions: 420000000 cycles: 615719187 heartbeat IPC: 0.439219 cumulative IPC: 0.565462 (Simulation time: 0 hr 15 min 56 sec) 
Heartbeat CPU 0 instructions: 430000003 cycles: 636478478 heartbeat IPC: 0.481712 cumulative IPC: 0.562498 (Simulation time: 0 hr 16 min 20 sec) 
Heartbeat CPU 0 instructions: 440000000 cycles: 655043771 heartbeat IPC: 0.538639 cumulative IPC: 0.561766 (Simulation time: 0 hr 16 min 42 sec) 
Heartbeat CPU 0 instructions: 450000001 cycles: 671701292 heartbeat IPC: 0.600329 cumulative IPC: 0.562799 (Simulation time: 0 hr 17 min 4 sec) 
Heartbeat CPU 0 instructions: 460000001 cycles: 685632457 heartbeat IPC: 0.717815 cumulative IPC: 0.566196 (Simulation time: 0 hr 17 min 25 sec) 
Heartbeat CPU 0 instructions: 470000001 cycles: 708110473 heartbeat IPC: 0.444879 cumulative IPC: 0.562053 (Simulation time: 0 hr 17 min 50 sec) 
Heartbeat CPU 0 instructions: 480000001 cycles: 727952360 heartbeat IPC: 0.503984 cumulative IPC: 0.560354 (Simulation time: 0 hr 18 min 14 sec) 
Heartbeat CPU 0 instructions: 490000002 cycles: 745112185 heartbeat IPC: 0.582757 cumulative IPC: 0.560907 (Simulation time: 0 hr 18 min 35 sec) 
Heartbeat CPU 0 instructions: 500000000 cycles: 765781286 heartbeat IPC: 0.483814 cumulative IPC: 0.558681 (Simulation time: 0 hr 19 min 0 sec) 
Heartbeat CPU 0 instructions: 510000000 cycles: 786525054 heartbeat IPC: 0.482073 cumulative IPC: 0.556524 (Simulation time: 0 hr 19 min 25 sec) 
Heartbeat CPU 0 instructions: 520000003 cycles: 805226440 heartbeat IPC: 0.53472 cumulative IPC: 0.555985 (Simulation time: 0 hr 19 min 48 sec) 
Heartbeat CPU 0 instructions: 530000000 cycles: 822723991 heartbeat IPC: 0.571508 cumulative IPC: 0.556336 (Simulation time: 0 hr 20 min 10 sec) 
Heartbeat CPU 0 instructions: 540000001 cycles: 839333225 heartbeat IPC: 0.602075 cumulative IPC: 0.557298 (Simulation time: 0 hr 20 min 32 sec) 
Heartbeat CPU 0 instructions: 550000000 cycles: 855293734 heartbeat IPC: 0.626546 cumulative IPC: 0.55867 (Simulation time: 0 hr 20 min 53 sec) 
Heartbeat CPU 0 instructions: 560000001 cycles: 870756131 heartbeat IPC: 0.64673 cumulative IPC: 0.560329 (Simulation time: 0 hr 21 min 15 sec) 
Heartbeat CPU 0 instructions: 570000000 cycles: 881458528 heartbeat IPC: 0.93437 cumulative IPC: 0.565142 (Simulation time: 0 hr 21 min 36 sec) 
Heartbeat CPU 0 instructions: 580000001 cycles: 892559531 heartbeat IPC: 0.90082 cumulative IPC: 0.569564 (Simulation time: 0 hr 21 min 57 sec) 
Heartbeat CPU 0 instructions: 590000001 cycles: 905085919 heartbeat IPC: 0.798315 cumulative IPC: 0.572914 (Simulation time: 0 hr 22 min 19 sec) 
Heartbeat CPU 0 instructions: 600000001 cycles: 919317177 heartbeat IPC: 0.702679 cumulative IPC: 0.575038 (Simulation time: 0 hr 22 min 41 sec) 
Heartbeat CPU 0 instructions: 610000001 cycles: 937007104 heartbeat IPC: 0.565293 cumulative IPC: 0.574844 (Simulation time: 0 hr 23 min 4 sec) 
Heartbeat CPU 0 instructions: 620000002 cycles: 960635170 heartbeat IPC: 0.423226 cumulative IPC: 0.570911 (Simulation time: 0 hr 23 min 28 sec) 
Heartbeat CPU 0 instructions: 630000002 cycles: 982490878 heartbeat IPC: 0.457546 cumulative IPC: 0.568254 (Simulation time: 0 hr 23 min 54 sec) 
Heartbeat CPU 0 instructions: 640000002 cycles: 1004578330 heartbeat IPC: 0.452746 cumulative IPC: 0.565582 (Simulation time: 0 hr 24 min 19 sec) 
Heartbeat CPU 0 instructions: 650000000 cycles: 1023927348 heartbeat IPC: 0.516822 cumulative IPC: 0.564614 (Simulation time: 0 hr 24 min 42 sec) 
Heartbeat CPU 0 instructions: 660000000 cycles: 1041829261 heartbeat IPC: 0.5586 cumulative IPC: 0.564505 (Simulation time: 0 hr 25 min 4 sec) 
Heartbeat CPU 0 instructions: 670000003 cycles: 1058695934 heartbeat IPC: 0.592885 cumulative IPC: 0.564979 (Simulation time: 0 hr 25 min 26 sec) 
Heartbeat CPU 0 instructions: 680000000 cycles: 1074252400 heartbeat IPC: 0.642819 cumulative IPC: 0.566162 (Simulation time: 0 hr 25 min 48 sec) 
Heartbeat CPU 0 instructions: 690000001 cycles: 1085410194 heartbeat IPC: 0.896235 cumulative IPC: 0.569718 (Simulation time: 0 hr 26 min 8 sec) 
Heartbeat CPU 0 instructions: 700000001 cycles: 1098710071 heartbeat IPC: 0.751887 cumulative IPC: 0.572028 (Simulation time: 0 hr 26 min 30 sec) 
Heartbeat CPU 0 instructions: 710000000 cycles: 1115824249 heartbeat IPC: 0.584311 cumulative IPC: 0.572225 (Simulation time: 0 hr 26 min 53 sec) 
Heartbeat CPU 0 instructions: 720000002 cycles: 1138723088 heartbeat IPC: 0.436703 cumulative IPC: 0.569375 (Simulation time: 0 hr 27 min 20 sec) 
Heartbeat CPU 0 instructions: 730000000 cycles: 1159886774 heartbeat IPC: 0.472507 cumulative IPC: 0.567528 (Simulation time: 0 hr 27 min 46 sec) 
Heartbeat CPU 0 instructions: 740000000 cycles: 1181620814 heartbeat IPC: 0.460108 cumulative IPC: 0.565465 (Simulation time: 0 hr 28 min 11 sec) 
Heartbeat CPU 0 instructions: 750000002 cycles: 1204825674 heartbeat IPC: 0.430944 cumulative IPC: 0.562763 (Simulation time: 0 hr 28 min 37 sec) 
Heartbeat CPU 0 instructions: 760000000 cycles: 1228149578 heartbeat IPC: 0.428745 cumulative IPC: 0.56011 (Simulation time: 0 hr 29 min 4 sec) 
Heartbeat CPU 0 instructions: 770000000 cycles: 1248230495 heartbeat IPC: 0.497985 cumulative IPC: 0.559069 (Simulation time: 0 hr 29 min 28 sec) 
Heartbeat CPU 0 instructions: 780000002 cycles: 1266577756 heartbeat IPC: 0.545041 cumulative IPC: 0.558858 (Simulation time: 0 hr 29 min 51 sec) 
Heartbeat CPU 0 instructions: 790000000 cycles: 1283635595 heartbeat IPC: 0.586241 cumulative IPC: 0.559236 (Simulation time: 0 hr 30 min 13 sec) 
Heartbeat CPU 0 instructions: 800000002 cycles: 1296541370 heartbeat IPC: 0.774847 cumulative IPC: 0.561468 (Simulation time: 0 hr 30 min 34 sec) 
Heartbeat CPU 0 instructions: 810000002 cycles: 1313533445 heartbeat IPC: 0.58851 cumulative IPC: 0.561832 (Simulation time: 0 hr 30 min 58 sec) 
Heartbeat CPU 0 instructions: 820000002 cycles: 1336470590 heartbeat IPC: 0.435974 cumulative IPC: 0.559588 (Simulation time: 0 hr 31 min 24 sec) 
Heartbeat CPU 0 instructions: 830000000 cycles: 1356988205 heartbeat IPC: 0.487386 cumulative IPC: 0.558455 (Simulation time: 0 hr 31 min 49 sec) 
Heartbeat CPU 0 instructions: 840000000 cycles: 1379356251 heartbeat IPC: 0.447066 cumulative IPC: 0.556581 (Simulation time: 0 hr 32 min 15 sec) 
Heartbeat CPU 0 instructions: 850000001 cycles: 1398589715 heartbeat IPC: 0.519927 cumulative IPC: 0.556058 (Simulation time: 0 hr 32 min 38 sec) 
Heartbeat CPU 0 instructions: 860000000 cycles: 1417415049 heartbeat IPC: 0.531199 cumulative IPC: 0.555716 (Simulation time: 0 hr 33 min 3 sec) 
Heartbeat CPU 0 instructions: 870000001 cycles: 1438249647 heartbeat IPC: 0.479971 cumulative IPC: 0.554579 (Simulation time: 0 hr 33 min 28 sec) 
Heartbeat CPU 0 instructions: 880000000 cycles: 1456773360 heartbeat IPC: 0.539849 cumulative IPC: 0.554385 (Simulation time: 0 hr 33 min 50 sec) 
Heartbeat CPU 0 instructions: 890000000 cycles: 1473182399 heartbeat IPC: 0.60942 cumulative IPC: 0.55502 (Simulation time: 0 hr 34 min 13 sec) 
Heartbeat CPU 0 instructions: 900000001 cycles: 1497106702 heartbeat IPC: 0.417985 cumulative IPC: 0.552755 (Simulation time: 0 hr 34 min 40 sec) 
Heartbeat CPU 0 instructions: 910000000 cycles: 1517320859 heartbeat IPC: 0.494703 cumulative IPC: 0.551955 (Simulation time: 0 hr 35 min 4 sec) 
Heartbeat CPU 0 instructions: 920000001 cycles: 1535702458 heartbeat IPC: 0.544022 cumulative IPC: 0.551857 (Simulation time: 0 hr 35 min 27 sec) 
Heartbeat CPU 0 instructions: 930000000 cycles: 1550754316 heartbeat IPC: 0.66437 cumulative IPC: 0.552985 (Simulation time: 0 hr 35 min 49 sec) 
Heartbeat CPU 0 instructions: 940000002 cycles: 1570791624 heartbeat IPC: 0.499069 cumulative IPC: 0.552275 (Simulation time: 0 hr 36 min 14 sec) 
Heartbeat CPU 0 instructions: 950000002 cycles: 1591259890 heartbeat IPC: 0.488561 cumulative IPC: 0.551429 (Simulation time: 0 hr 36 min 38 sec) 
Heartbeat CPU 0 instructions: 960000001 cycles: 1612534980 heartbeat IPC: 0.470033 cumulative IPC: 0.550321 (Simulation time: 0 hr 37 min 4 sec) 
Heartbeat CPU 0 instructions: 970000001 cycles: 1632224674 heartbeat IPC: 0.50788 cumulative IPC: 0.549793 (Simulation time: 0 hr 37 min 28 sec) 
Heartbeat CPU 0 instructions: 980000000 cycles: 1650268376 heartbeat IPC: 0.55421 cumulative IPC: 0.549842 (Simulation time: 0 hr 37 min 51 sec) 
Heartbeat CPU 0 instructions: 990000000 cycles: 1667278896 heartbeat IPC: 0.587871 cumulative IPC: 0.550242 (Simulation time: 0 hr 38 min 14 sec) 
Heartbeat CPU 0 instructions: 1000000000 cycles: 1680302444 heartbeat IPC: 0.76784 cumulative IPC: 0.55198 (Simulation time: 0 hr 38 min 35 sec) 
Heartbeat CPU 0 instructions: 1010000001 cycles: 1694368608 heartbeat IPC: 0.710926 cumulative IPC: 0.55334 (Simulation time: 0 hr 38 min 57 sec) 
Heartbeat CPU 0 instructions: 1020000002 cycles: 1715878378 heartbeat IPC: 0.464905 cumulative IPC: 0.552198 (Simulation time: 0 hr 39 min 22 sec) 
Heartbeat CPU 0 instructions: 1030000000 cycles: 1736433809 heartbeat IPC: 0.486489 cumulative IPC: 0.551397 (Simulation time: 0 hr 39 min 46 sec) 
Heartbeat CPU 0 instructions: 1040000000 cycles: 1754697849 heartbeat IPC: 0.547524 cumulative IPC: 0.551356 (Simulation time: 0 hr 40 min 9 sec) 
Heartbeat CPU 0 instructions: 1050000000 cycles: 1773055225 heartbeat IPC: 0.54474 cumulative IPC: 0.551285 (Simulation time: 0 hr 40 min 34 sec) 
Heartbeat CPU 0 instructions: 1060000002 cycles: 1794180867 heartbeat IPC: 0.473358 cumulative IPC: 0.550342 (Simulation time: 0 hr 40 min 58 sec) 
Heartbeat CPU 0 instructions: 1070000003 cycles: 1812697706 heartbeat IPC: 0.540049 cumulative IPC: 0.550233 (Simulation time: 0 hr 41 min 21 sec) 
Heartbeat CPU 0 instructions: 1080000001 cycles: 1828198020 heartbeat IPC: 0.645148 cumulative IPC: 0.551061 (Simulation time: 0 hr 41 min 43 sec) 
Heartbeat CPU 0 instructions: 1090000001 cycles: 1850336362 heartbeat IPC: 0.451705 cumulative IPC: 0.549839 (Simulation time: 0 hr 42 min 9 sec) 
Heartbeat CPU 0 instructions: 1100000000 cycles: 1869755928 heartbeat IPC: 0.514944 cumulative IPC: 0.549467 (Simulation time: 0 hr 42 min 33 sec) 
Finished CPU 0 instructions: 1000000000 cycles: 1819946162 cumulative IPC: 0.549467 (Simulation time: 0 hr 42 min 33 sec) 

ChampSim completed all CPUs

Region of Interest Statistics

CPU 0 cumulative IPC: 0.549467 instructions: 1000000000 cycles: 1819946162
L1D TOTAL     ACCESS:  235122511  HIT:  182439796  MISS:   52682715
L1D LOAD      ACCESS:  168400587  HIT:  117389199  MISS:   51011388
L1D RFO       ACCESS:   66721924  HIT:   65050597  MISS:    1671327
L1D PREFETCH  ACCESS:          0  HIT:          0  MISS:          0
L1D WRITEBACK ACCESS:          0  HIT:          0  MISS:          0
L1D PREFETCH  REQUESTED:          0  ISSUED:          0  USEFUL:          0  USELESS:          0
L1D AVERAGE MISS LATENCY: 33.9031 cycles
L1I TOTAL     ACCESS:  219375533  HIT:  216914844  MISS:    2460689
L1I LOAD      ACCESS:  219375533  HIT:  216914844  MISS:    2460689
L1I RFO       ACCESS:          0  HIT:          0  MISS:          0
L1I PREFETCH  ACCESS:          0  HIT:          0  MISS:          0
L1I WRITEBACK ACCESS:          0  HIT:          0  MISS:          0
L1I PREFETCH  REQUESTED:          0  ISSUED:          0  USEFUL:          0  USELESS:          0
L1I AVERAGE MISS LATENCY: 20.0672 cycles
L2C TOTAL     ACCESS:   57894054  HIT:   36749494  MISS:   21144560
L2C LOAD      ACCESS:   53471427  HIT:   33689294  MISS:   19782133
L2C RFO       ACCESS:    1671275  HIT:     309027  MISS:    1362248
L2C PREFETCH  ACCESS:          0  HIT:          0  MISS:          0
L2C WRITEBACK ACCESS:    2751352  HIT:    2751173  MISS:        179
L2C PREFETCH  REQUESTED:          0  ISSUED:          0  USEFUL:          0  USELESS:          0
L2C AVERAGE MISS LATENCY: 52.4466 cycles
LLC TOTAL     ACCESS:   23028086  HIT:   21682048  MISS:    1346038
LLC LOAD      ACCESS:   19782098  HIT:   19532652  MISS:     249446
LLC RFO       ACCESS:    1362241  HIT:     286871  MISS:    1075370
LLC PREFETCH  ACCESS:          0  HIT:          0  MISS:          0
LLC WRITEBACK ACCESS:    1883747  HIT:    1862525  MISS:      21222
LLC PREFETCH  REQUESTED:          0  ISSUED:          0  USEFUL:          0  USELESS:          0
LLC AVERAGE MISS LATENCY: 160.745 cycles
Major fault: 0 Minor fault: 6208

DRAM Statistics
 CHANNEL 0
 RQ ROW_BUFFER_HIT:     582538  ROW_BUFFER_MISS:     742272
 DBUS_CONGESTED:    1072144
 WQ ROW_BUFFER_HIT:     206316  ROW_BUFFER_MISS:     997033  FULL:          0

 AVG_CONGESTED_CYCLE: 6

CPU 0 Branch Prediction Accuracy: 97.9229% MPKI: 5.94568 Average ROB Occupancy at Mispredict: 44.3094

Branch types
NOT_BRANCH: 713754972 71.3755%
BRANCH_DIRECT_JUMP: 7870399 0.78704%
BRANCH_INDIRECT: 2818396 0.28184%
BRANCH_CONDITIONAL: 244384419 24.4384%
BRANCH_DIRECT_CALL: 9876498 0.98765%
BRANCH_INDIRECT_CALL: 5709278 0.570928%
BRANCH_RETURN: 15585777 1.55858%
BRANCH_OTHER: 0 0%

