
*** ChampSim Multicore Out-of-Order Simulator ***

Warmup Instructions: 100000000
Simulation Instructions: 1000000000
Number of CPUs: 1
LLC sets: 2048
LLC ways: 16
Off-chip DRAM Size: 4096 MB Channels: 1 Width: 64-bit Data Rate: 3200 MT/s

CPU 0 runs /scratch/user/kevin.weston/dpc3-traces/625.champsimtrace.xz
CPU 0 Bimodal branch predictor
Initialize RRPV
Initialize PRRIP state
Heartbeat CPU 0 instructions: 10000001 cycles: 3383272 heartbeat IPC: 2.95572 cumulative IPC: 2.95572 (Simulation time: 0 hr 0 min 20 sec) 
Heartbeat CPU 0 instructions: 20000000 cycles: 6780092 heartbeat IPC: 2.94393 cumulative IPC: 2.94981 (Simulation time: 0 hr 0 min 39 sec) 
Heartbeat CPU 0 instructions: 30000000 cycles: 10162343 heartbeat IPC: 2.95661 cumulative IPC: 2.95208 (Simulation time: 0 hr 0 min 58 sec) 
Heartbeat CPU 0 instructions: 40000002 cycles: 13536215 heartbeat IPC: 2.96395 cumulative IPC: 2.95504 (Simulation time: 0 hr 1 min 18 sec) 
Heartbeat CPU 0 instructions: 50000003 cycles: 16904914 heartbeat IPC: 2.96851 cumulative IPC: 2.95772 (Simulation time: 0 hr 1 min 37 sec) 
Heartbeat CPU 0 instructions: 60000003 cycles: 20272624 heartbeat IPC: 2.96938 cumulative IPC: 2.95966 (Simulation time: 0 hr 1 min 57 sec) 
Heartbeat CPU 0 instructions: 70000002 cycles: 23644481 heartbeat IPC: 2.96572 cumulative IPC: 2.96052 (Simulation time: 0 hr 2 min 16 sec) 
Heartbeat CPU 0 instructions: 80000000 cycles: 27017688 heartbeat IPC: 2.96454 cumulative IPC: 2.96102 (Simulation time: 0 hr 2 min 35 sec) 
Heartbeat CPU 0 instructions: 90000000 cycles: 30391485 heartbeat IPC: 2.96402 cumulative IPC: 2.96136 (Simulation time: 0 hr 2 min 55 sec) 
Heartbeat CPU 0 instructions: 100000001 cycles: 33762964 heartbeat IPC: 2.96606 cumulative IPC: 2.96183 (Simulation time: 0 hr 3 min 14 sec) 

Warmup complete CPU 0 instructions: 100000001 cycles: 33762964 (Simulation time: 0 hr 3 min 14 sec) 

Heartbeat CPU 0 instructions: 110000000 cycles: 40115769 heartbeat IPC: 1.57411 cumulative IPC: 1.57411 (Simulation time: 0 hr 3 min 27 sec) 
Heartbeat CPU 0 instructions: 120000000 cycles: 46484288 heartbeat IPC: 1.57022 cumulative IPC: 1.57216 (Simulation time: 0 hr 3 min 39 sec) 
Heartbeat CPU 0 instructions: 130000000 cycles: 52875907 heartbeat IPC: 1.56455 cumulative IPC: 1.56962 (Simulation time: 0 hr 3 min 52 sec) 
Heartbeat CPU 0 instructions: 140000003 cycles: 64053146 heartbeat IPC: 0.894676 cumulative IPC: 1.32056 (Simulation time: 0 hr 4 min 6 sec) 
Heartbeat CPU 0 instructions: 150000000 cycles: 72166754 heartbeat IPC: 1.2325 cumulative IPC: 1.30195 (Simulation time: 0 hr 4 min 19 sec) 
Heartbeat CPU 0 instructions: 160000000 cycles: 78887883 heartbeat IPC: 1.48785 cumulative IPC: 1.32964 (Simulation time: 0 hr 4 min 30 sec) 
Heartbeat CPU 0 instructions: 170000003 cycles: 85698283 heartbeat IPC: 1.46834 cumulative IPC: 1.34783 (Simulation time: 0 hr 4 min 42 sec) 
Heartbeat CPU 0 instructions: 180000000 cycles: 92344826 heartbeat IPC: 1.50454 cumulative IPC: 1.36561 (Simulation time: 0 hr 4 min 53 sec) 
Heartbeat CPU 0 instructions: 190000000 cycles: 99040699 heartbeat IPC: 1.49346 cumulative IPC: 1.37872 (Simulation time: 0 hr 5 min 4 sec) 
Heartbeat CPU 0 instructions: 200000000 cycles: 105898849 heartbeat IPC: 1.45812 cumulative IPC: 1.38627 (Simulation time: 0 hr 5 min 16 sec) 
Heartbeat CPU 0 instructions: 210000001 cycles: 112562438 heartbeat IPC: 1.50069 cumulative IPC: 1.39595 (Simulation time: 0 hr 5 min 27 sec) 
Heartbeat CPU 0 instructions: 220000000 cycles: 119318882 heartbeat IPC: 1.48007 cumulative IPC: 1.40259 (Simulation time: 0 hr 5 min 39 sec) 
Heartbeat CPU 0 instructions: 230000001 cycles: 126097489 heartbeat IPC: 1.47523 cumulative IPC: 1.40792 (Simulation time: 0 hr 5 min 50 sec) 
Heartbeat CPU 0 instructions: 240000000 cycles: 132783014 heartbeat IPC: 1.49577 cumulative IPC: 1.41386 (Simulation time: 0 hr 6 min 2 sec) 
Heartbeat CPU 0 instructions: 250000000 cycles: 139593741 heartbeat IPC: 1.46827 cumulative IPC: 1.41736 (Simulation time: 0 hr 6 min 13 sec) 
Heartbeat CPU 0 instructions: 260000000 cycles: 146284662 heartbeat IPC: 1.49456 cumulative IPC: 1.42195 (Simulation time: 0 hr 6 min 25 sec) 
Heartbeat CPU 0 instructions: 270000001 cycles: 152969207 heartbeat IPC: 1.49599 cumulative IPC: 1.4261 (Simulation time: 0 hr 6 min 36 sec) 
Heartbeat CPU 0 instructions: 280000000 cycles: 159802295 heartbeat IPC: 1.46347 cumulative IPC: 1.42813 (Simulation time: 0 hr 6 min 48 sec) 
Heartbeat CPU 0 instructions: 290000000 cycles: 166480016 heartbeat IPC: 1.49752 cumulative IPC: 1.43162 (Simulation time: 0 hr 6 min 59 sec) 
Heartbeat CPU 0 instructions: 300000001 cycles: 173124345 heartbeat IPC: 1.50504 cumulative IPC: 1.43512 (Simulation time: 0 hr 7 min 10 sec) 
Heartbeat CPU 0 instructions: 310000000 cycles: 179947129 heartbeat IPC: 1.46568 cumulative IPC: 1.43654 (Simulation time: 0 hr 7 min 22 sec) 
Heartbeat CPU 0 instructions: 320000001 cycles: 186602501 heartbeat IPC: 1.50255 cumulative IPC: 1.43942 (Simulation time: 0 hr 7 min 33 sec) 
Heartbeat CPU 0 instructions: 330000000 cycles: 193240329 heartbeat IPC: 1.50652 cumulative IPC: 1.44221 (Simulation time: 0 hr 7 min 44 sec) 
Heartbeat CPU 0 instructions: 340000000 cycles: 199874778 heartbeat IPC: 1.50728 cumulative IPC: 1.44481 (Simulation time: 0 hr 7 min 55 sec) 
Heartbeat CPU 0 instructions: 350000003 cycles: 206494725 heartbeat IPC: 1.51059 cumulative IPC: 1.44733 (Simulation time: 0 hr 8 min 7 sec) 
Heartbeat CPU 0 instructions: 360000002 cycles: 213115262 heartbeat IPC: 1.51045 cumulative IPC: 1.44966 (Simulation time: 0 hr 8 min 18 sec) 
Heartbeat CPU 0 instructions: 370000001 cycles: 219743578 heartbeat IPC: 1.50868 cumulative IPC: 1.45176 (Simulation time: 0 hr 8 min 29 sec) 
Heartbeat CPU 0 instructions: 380000001 cycles: 226384647 heartbeat IPC: 1.50578 cumulative IPC: 1.45363 (Simulation time: 0 hr 8 min 40 sec) 
Heartbeat CPU 0 instructions: 390000000 cycles: 233034721 heartbeat IPC: 1.50374 cumulative IPC: 1.4553 (Simulation time: 0 hr 8 min 52 sec) 
Heartbeat CPU 0 instructions: 400000001 cycles: 244640034 heartbeat IPC: 0.861674 cumulative IPC: 1.42263 (Simulation time: 0 hr 9 min 7 sec) 
Heartbeat CPU 0 instructions: 410000000 cycles: 250791236 heartbeat IPC: 1.6257 cumulative IPC: 1.42839 (Simulation time: 0 hr 9 min 19 sec) 
Heartbeat CPU 0 instructions: 420000002 cycles: 257519658 heartbeat IPC: 1.48623 cumulative IPC: 1.43012 (Simulation time: 0 hr 9 min 32 sec) 
Heartbeat CPU 0 instructions: 430000002 cycles: 264526899 heartbeat IPC: 1.4271 cumulative IPC: 1.43003 (Simulation time: 0 hr 9 min 44 sec) 
Heartbeat CPU 0 instructions: 440000000 cycles: 270894852 heartbeat IPC: 1.57036 cumulative IPC: 1.4338 (Simulation time: 0 hr 9 min 56 sec) 
Heartbeat CPU 0 instructions: 450000000 cycles: 277183864 heartbeat IPC: 1.59007 cumulative IPC: 1.43784 (Simulation time: 0 hr 10 min 8 sec) 
Heartbeat CPU 0 instructions: 460000003 cycles: 283540065 heartbeat IPC: 1.57327 cumulative IPC: 1.44129 (Simulation time: 0 hr 10 min 20 sec) 
Heartbeat CPU 0 instructions: 470000000 cycles: 289935102 heartbeat IPC: 1.56371 cumulative IPC: 1.44434 (Simulation time: 0 hr 10 min 32 sec) 
Heartbeat CPU 0 instructions: 480000001 cycles: 296239164 heartbeat IPC: 1.58628 cumulative IPC: 1.44775 (Simulation time: 0 hr 10 min 45 sec) 
Heartbeat CPU 0 instructions: 490000002 cycles: 302642845 heartbeat IPC: 1.5616 cumulative IPC: 1.45046 (Simulation time: 0 hr 10 min 57 sec) 
Heartbeat CPU 0 instructions: 500000001 cycles: 308975134 heartbeat IPC: 1.57921 cumulative IPC: 1.45342 (Simulation time: 0 hr 11 min 9 sec) 
Heartbeat CPU 0 instructions: 510000002 cycles: 315286986 heartbeat IPC: 1.58432 cumulative IPC: 1.45636 (Simulation time: 0 hr 11 min 21 sec) 
Heartbeat CPU 0 instructions: 520000002 cycles: 321546901 heartbeat IPC: 1.59747 cumulative IPC: 1.45943 (Simulation time: 0 hr 11 min 33 sec) 
Heartbeat CPU 0 instructions: 530000001 cycles: 327821803 heartbeat IPC: 1.59365 cumulative IPC: 1.46229 (Simulation time: 0 hr 11 min 45 sec) 
Heartbeat CPU 0 instructions: 540000002 cycles: 334182305 heartbeat IPC: 1.5722 cumulative IPC: 1.46462 (Simulation time: 0 hr 11 min 58 sec) 
Heartbeat CPU 0 instructions: 550000000 cycles: 340406074 heartbeat IPC: 1.60674 cumulative IPC: 1.4675 (Simulation time: 0 hr 12 min 9 sec) 
Heartbeat CPU 0 instructions: 560000000 cycles: 346618129 heartbeat IPC: 1.60977 cumulative IPC: 1.47033 (Simulation time: 0 hr 12 min 21 sec) 
Heartbeat CPU 0 instructions: 570000001 cycles: 358495726 heartbeat IPC: 0.841921 cumulative IPC: 1.44734 (Simulation time: 0 hr 12 min 39 sec) 
Heartbeat CPU 0 instructions: 580000002 cycles: 364654520 heartbeat IPC: 1.62369 cumulative IPC: 1.45063 (Simulation time: 0 hr 12 min 52 sec) 
Heartbeat CPU 0 instructions: 590000002 cycles: 372172195 heartbeat IPC: 1.3302 cumulative IPC: 1.44795 (Simulation time: 0 hr 13 min 5 sec) 
Heartbeat CPU 0 instructions: 600000003 cycles: 379117150 heartbeat IPC: 1.43989 cumulative IPC: 1.44779 (Simulation time: 0 hr 13 min 19 sec) 
Heartbeat CPU 0 instructions: 610000001 cycles: 386039706 heartbeat IPC: 1.44455 cumulative IPC: 1.44773 (Simulation time: 0 hr 13 min 33 sec) 
Heartbeat CPU 0 instructions: 620000002 cycles: 392883596 heartbeat IPC: 1.46116 cumulative IPC: 1.44798 (Simulation time: 0 hr 13 min 47 sec) 
Heartbeat CPU 0 instructions: 630000002 cycles: 399714271 heartbeat IPC: 1.46398 cumulative IPC: 1.44828 (Simulation time: 0 hr 14 min 1 sec) 
Heartbeat CPU 0 instructions: 640000000 cycles: 406567105 heartbeat IPC: 1.45925 cumulative IPC: 1.44848 (Simulation time: 0 hr 14 min 15 sec) 
Heartbeat CPU 0 instructions: 650000000 cycles: 413360876 heartbeat IPC: 1.47194 cumulative IPC: 1.4489 (Simulation time: 0 hr 14 min 30 sec) 
Heartbeat CPU 0 instructions: 660000000 cycles: 420120577 heartbeat IPC: 1.47936 cumulative IPC: 1.44943 (Simulation time: 0 hr 14 min 44 sec) 
Heartbeat CPU 0 instructions: 670000000 cycles: 432812508 heartbeat IPC: 0.787902 cumulative IPC: 1.42839 (Simulation time: 0 hr 15 min 1 sec) 
Heartbeat CPU 0 instructions: 680000002 cycles: 439272902 heartbeat IPC: 1.54789 cumulative IPC: 1.4303 (Simulation time: 0 hr 15 min 14 sec) 
Heartbeat CPU 0 instructions: 690000000 cycles: 446432158 heartbeat IPC: 1.39679 cumulative IPC: 1.42972 (Simulation time: 0 hr 15 min 27 sec) 
Heartbeat CPU 0 instructions: 700000001 cycles: 453453861 heartbeat IPC: 1.42416 cumulative IPC: 1.42962 (Simulation time: 0 hr 15 min 41 sec) 
Heartbeat CPU 0 instructions: 710000001 cycles: 460332073 heartbeat IPC: 1.45387 cumulative IPC: 1.43001 (Simulation time: 0 hr 15 min 55 sec) 
Heartbeat CPU 0 instructions: 720000001 cycles: 467156203 heartbeat IPC: 1.46539 cumulative IPC: 1.43057 (Simulation time: 0 hr 16 min 10 sec) 
Heartbeat CPU 0 instructions: 730000001 cycles: 473997535 heartbeat IPC: 1.4617 cumulative IPC: 1.43106 (Simulation time: 0 hr 16 min 24 sec) 
Heartbeat CPU 0 instructions: 740000000 cycles: 480807479 heartbeat IPC: 1.46844 cumulative IPC: 1.43162 (Simulation time: 0 hr 16 min 38 sec) 
Heartbeat CPU 0 instructions: 750000000 cycles: 487592543 heartbeat IPC: 1.47383 cumulative IPC: 1.43226 (Simulation time: 0 hr 16 min 52 sec) 
Heartbeat CPU 0 instructions: 760000001 cycles: 501111446 heartbeat IPC: 0.739705 cumulative IPC: 1.41222 (Simulation time: 0 hr 17 min 11 sec) 
Heartbeat CPU 0 instructions: 770000000 cycles: 507160113 heartbeat IPC: 1.65326 cumulative IPC: 1.4153 (Simulation time: 0 hr 17 min 24 sec) 
Heartbeat CPU 0 instructions: 780000001 cycles: 514123055 heartbeat IPC: 1.43617 cumulative IPC: 1.4156 (Simulation time: 0 hr 17 min 36 sec) 
Heartbeat CPU 0 instructions: 790000000 cycles: 520510832 heartbeat IPC: 1.56549 cumulative IPC: 1.41757 (Simulation time: 0 hr 17 min 50 sec) 
Heartbeat CPU 0 instructions: 800000003 cycles: 526874241 heartbeat IPC: 1.57149 cumulative IPC: 1.41956 (Simulation time: 0 hr 18 min 3 sec) 
Heartbeat CPU 0 instructions: 810000002 cycles: 533226952 heartbeat IPC: 1.57413 cumulative IPC: 1.42152 (Simulation time: 0 hr 18 min 16 sec) 
Heartbeat CPU 0 instructions: 820000003 cycles: 539593459 heartbeat IPC: 1.57072 cumulative IPC: 1.4234 (Simulation time: 0 hr 18 min 30 sec) 
Heartbeat CPU 0 instructions: 830000000 cycles: 545960334 heartbeat IPC: 1.57063 cumulative IPC: 1.42523 (Simulation time: 0 hr 18 min 43 sec) 
Heartbeat CPU 0 instructions: 840000003 cycles: 552322638 heartbeat IPC: 1.57176 cumulative IPC: 1.42703 (Simulation time: 0 hr 18 min 57 sec) 
Heartbeat CPU 0 instructions: 850000000 cycles: 558690827 heartbeat IPC: 1.5703 cumulative IPC: 1.42877 (Simulation time: 0 hr 19 min 10 sec) 
Heartbeat CPU 0 instructions: 860000001 cycles: 565048667 heartbeat IPC: 1.57286 cumulative IPC: 1.43049 (Simulation time: 0 hr 19 min 23 sec) 
Heartbeat CPU 0 instructions: 870000002 cycles: 571427925 heartbeat IPC: 1.56758 cumulative IPC: 1.43212 (Simulation time: 0 hr 19 min 37 sec) 
Heartbeat CPU 0 instructions: 880000000 cycles: 577825068 heartbeat IPC: 1.5632 cumulative IPC: 1.43366 (Simulation time: 0 hr 19 min 50 sec) 
Heartbeat CPU 0 instructions: 890000003 cycles: 584236790 heartbeat IPC: 1.55964 cumulative IPC: 1.43513 (Simulation time: 0 hr 20 min 3 sec) 
Heartbeat CPU 0 instructions: 900000002 cycles: 590637828 heartbeat IPC: 1.56225 cumulative IPC: 1.43659 (Simulation time: 0 hr 20 min 16 sec) 
Heartbeat CPU 0 instructions: 910000000 cycles: 597040754 heartbeat IPC: 1.56179 cumulative IPC: 1.43801 (Simulation time: 0 hr 20 min 30 sec) 
Heartbeat CPU 0 instructions: 920000001 cycles: 603400989 heartbeat IPC: 1.57227 cumulative IPC: 1.43951 (Simulation time: 0 hr 20 min 43 sec) 
Heartbeat CPU 0 instructions: 930000003 cycles: 609755228 heartbeat IPC: 1.57375 cumulative IPC: 1.44099 (Simulation time: 0 hr 20 min 56 sec) 
Heartbeat CPU 0 instructions: 940000000 cycles: 616154739 heartbeat IPC: 1.56262 cumulative IPC: 1.44233 (Simulation time: 0 hr 21 min 9 sec) 
Heartbeat CPU 0 instructions: 950000000 cycles: 622560562 heartbeat IPC: 1.56108 cumulative IPC: 1.44362 (Simulation time: 0 hr 21 min 22 sec) 
Heartbeat CPU 0 instructions: 960000003 cycles: 628966294 heartbeat IPC: 1.5611 cumulative IPC: 1.44488 (Simulation time: 0 hr 21 min 35 sec) 
Heartbeat CPU 0 instructions: 970000001 cycles: 635370365 heartbeat IPC: 1.56151 cumulative IPC: 1.44613 (Simulation time: 0 hr 21 min 49 sec) 
Heartbeat CPU 0 instructions: 980000001 cycles: 641778302 heartbeat IPC: 1.56056 cumulative IPC: 1.44733 (Simulation time: 0 hr 22 min 2 sec) 
Heartbeat CPU 0 instructions: 990000000 cycles: 648173314 heartbeat IPC: 1.56372 cumulative IPC: 1.44854 (Simulation time: 0 hr 22 min 15 sec) 
Heartbeat CPU 0 instructions: 1000000000 cycles: 654576640 heartbeat IPC: 1.56169 cumulative IPC: 1.44971 (Simulation time: 0 hr 22 min 29 sec) 
Heartbeat CPU 0 instructions: 1010000002 cycles: 660975334 heartbeat IPC: 1.56282 cumulative IPC: 1.45086 (Simulation time: 0 hr 22 min 42 sec) 
Heartbeat CPU 0 instructions: 1020000000 cycles: 667294352 heartbeat IPC: 1.58252 cumulative IPC: 1.45218 (Simulation time: 0 hr 22 min 56 sec) 
Heartbeat CPU 0 instructions: 1030000002 cycles: 673552161 heartbeat IPC: 1.598 cumulative IPC: 1.4536 (Simulation time: 0 hr 23 min 10 sec) 
Heartbeat CPU 0 instructions: 1040000002 cycles: 679812421 heartbeat IPC: 1.59738 cumulative IPC: 1.455 (Simulation time: 0 hr 23 min 24 sec) 
Heartbeat CPU 0 instructions: 1050000003 cycles: 686071340 heartbeat IPC: 1.59772 cumulative IPC: 1.45637 (Simulation time: 0 hr 23 min 38 sec) 
Heartbeat CPU 0 instructions: 1060000000 cycles: 692470646 heartbeat IPC: 1.56267 cumulative IPC: 1.4574 (Simulation time: 0 hr 23 min 52 sec) 
Heartbeat CPU 0 instructions: 1070000000 cycles: 698904337 heartbeat IPC: 1.55432 cumulative IPC: 1.45834 (Simulation time: 0 hr 24 min 5 sec) 
Heartbeat CPU 0 instructions: 1080000001 cycles: 705316688 heartbeat IPC: 1.55949 cumulative IPC: 1.4593 (Simulation time: 0 hr 24 min 18 sec) 
Heartbeat CPU 0 instructions: 1090000000 cycles: 711766561 heartbeat IPC: 1.55042 cumulative IPC: 1.46017 (Simulation time: 0 hr 24 min 31 sec) 
Heartbeat CPU 0 instructions: 1100000000 cycles: 718204419 heartbeat IPC: 1.55331 cumulative IPC: 1.46105 (Simulation time: 0 hr 24 min 44 sec) 
Finished CPU 0 instructions: 1000000000 cycles: 684441456 cumulative IPC: 1.46105 (Simulation time: 0 hr 24 min 44 sec) 

ChampSim completed all CPUs

Region of Interest Statistics

CPU 0 cumulative IPC: 1.46105 instructions: 1000000000 cycles: 684441456
L1D TOTAL     ACCESS:  185553228  HIT:  182662282  MISS:    2890946
L1D LOAD      ACCESS:  112474862  HIT:  110440281  MISS:    2034581
L1D RFO       ACCESS:   73078366  HIT:   72222001  MISS:     856365
L1D PREFETCH  ACCESS:          0  HIT:          0  MISS:          0
L1D WRITEBACK ACCESS:          0  HIT:          0  MISS:          0
L1D PREFETCH  REQUESTED:          0  ISSUED:          0  USEFUL:          0  USELESS:          0
L1D AVERAGE MISS LATENCY: 113.284 cycles
L1I TOTAL     ACCESS:  159721396  HIT:  157604535  MISS:    2116861
L1I LOAD      ACCESS:  159721396  HIT:  157604535  MISS:    2116861
L1I RFO       ACCESS:          0  HIT:          0  MISS:          0
L1I PREFETCH  ACCESS:          0  HIT:          0  MISS:          0
L1I WRITEBACK ACCESS:          0  HIT:          0  MISS:          0
L1I PREFETCH  REQUESTED:          0  ISSUED:          0  USEFUL:          0  USELESS:          0
L1I AVERAGE MISS LATENCY: 14.7331 cycles
L2C TOTAL     ACCESS:    6010105  HIT:    4574810  MISS:    1435295
L2C LOAD      ACCESS:    4151374  HIT:    3149624  MISS:    1001750
L2C RFO       ACCESS:     853945  HIT:     425420  MISS:     428525
L2C PREFETCH  ACCESS:          0  HIT:          0  MISS:          0
L2C WRITEBACK ACCESS:    1004786  HIT:     999766  MISS:       5020
L2C PREFETCH  REQUESTED:          0  ISSUED:          0  USEFUL:          0  USELESS:          0
L2C AVERAGE MISS LATENCY: 207.039 cycles
LLC TOTAL     ACCESS:    1954098  HIT:     601455  MISS:    1352643
LLC LOAD      ACCESS:    1001749  HIT:     312059  MISS:     689690
LLC RFO       ACCESS:     428519  HIT:      14879  MISS:     413640
LLC PREFETCH  ACCESS:          0  HIT:          0  MISS:          0
LLC WRITEBACK ACCESS:     523830  HIT:     274517  MISS:     249313
LLC PREFETCH  REQUESTED:          0  ISSUED:          0  USEFUL:          0  USELESS:          0
LLC AVERAGE MISS LATENCY: 176.712 cycles
Major fault: 0 Minor fault: 9674
==============================
Perceptron RRIP Stats:
   Num Updates:          1953660
   Num Primary Trains:   109997
   Num Secondary Trains: 92223
==============================
tag_perceptron #0: 5 13 5 9 3 -9 -1 -1 1 7 -7 -1 1 -5 5 -19 
set_perceptron #0: 5 15 9 11 5 -13 -1 -5 -1 13 -11 -1 3 -9 5 3 1 3 1 5 -27 


DRAM Statistics
 CHANNEL 0
 RQ ROW_BUFFER_HIT:     291167  ROW_BUFFER_MISS:     812031
 DBUS_CONGESTED:     489749
 WQ ROW_BUFFER_HIT:     134908  ROW_BUFFER_MISS:     345297  FULL:       9265

 AVG_CONGESTED_CYCLE: 6

CPU 0 Branch Prediction Accuracy: 92.2102% MPKI: 3.05576 Average ROB Occupancy at Mispredict: 44.8835

Branch types
NOT_BRANCH: 960772106 96.0772%
BRANCH_DIRECT_JUMP: 1534501 0.15345%
BRANCH_INDIRECT: 58107 0.0058107%
BRANCH_CONDITIONAL: 31962300 3.19623%
BRANCH_DIRECT_CALL: 1481511 0.148151%
BRANCH_INDIRECT_CALL: 1354833 0.135483%
BRANCH_RETURN: 2836344 0.283634%
BRANCH_OTHER: 0 0%

