
*** ChampSim Multicore Out-of-Order Simulator ***

Warmup Instructions: 100000000
Simulation Instructions: 1000000000
Number of CPUs: 1
LLC sets: 2048
LLC ways: 16
Off-chip DRAM Size: 4096 MB Channels: 1 Width: 64-bit Data Rate: 3200 MT/s

CPU 0 runs /scratch/user/kevin.weston/dpc3-traces/625.champsimtrace.xz
CPU 0 Bimodal branch predictor
Per-line RRPV Initialized
PRRIP State Initialized
Assign SAMPLER_SET[0]: 454  LLC: 2048
SAMPLER_SET[0]: 454
Assign SAMPLER_SET[1]: 1662  LLC: 2048
SAMPLER_SET[1]: 1662
Assign SAMPLER_SET[2]: 1921  LLC: 2048
SAMPLER_SET[2]: 1921
Assign SAMPLER_SET[3]: 1131  LLC: 2048
SAMPLER_SET[3]: 1131
Assign SAMPLER_SET[4]: 331  LLC: 2048
SAMPLER_SET[4]: 331
Assign SAMPLER_SET[5]: 1531  LLC: 2048
SAMPLER_SET[5]: 1531
Assign SAMPLER_SET[6]: 482  LLC: 2048
SAMPLER_SET[6]: 482
Assign SAMPLER_SET[7]: 1275  LLC: 2048
SAMPLER_SET[7]: 1275
Assign SAMPLER_SET[8]: 1876  LLC: 2048
SAMPLER_SET[8]: 1876
Assign SAMPLER_SET[9]: 2038  LLC: 2048
SAMPLER_SET[9]: 2038
Assign SAMPLER_SET[10]: 701  LLC: 2048
SAMPLER_SET[10]: 701
Assign SAMPLER_SET[11]: 479  LLC: 2048
SAMPLER_SET[11]: 479
Assign SAMPLER_SET[12]: 892  LLC: 2048
SAMPLER_SET[12]: 892
Assign SAMPLER_SET[13]: 1820  LLC: 2048
SAMPLER_SET[13]: 1820
Assign SAMPLER_SET[14]: 1505  LLC: 2048
SAMPLER_SET[14]: 1505
Assign SAMPLER_SET[15]: 1159  LLC: 2048
SAMPLER_SET[15]: 1159
Assign SAMPLER_SET[16]: 513  LLC: 2048
SAMPLER_SET[16]: 513
Assign SAMPLER_SET[17]: 703  LLC: 2048
SAMPLER_SET[17]: 703
Assign SAMPLER_SET[18]: 561  LLC: 2048
SAMPLER_SET[18]: 561
Assign SAMPLER_SET[19]: 990  LLC: 2048
SAMPLER_SET[19]: 990
Assign SAMPLER_SET[20]: 342  LLC: 2048
SAMPLER_SET[20]: 342
Assign SAMPLER_SET[21]: 882  LLC: 2048
SAMPLER_SET[21]: 882
Assign SAMPLER_SET[22]: 15  LLC: 2048
SAMPLER_SET[22]: 15
Assign SAMPLER_SET[23]: 71  LLC: 2048
SAMPLER_SET[23]: 71
Assign SAMPLER_SET[24]: 1127  LLC: 2048
SAMPLER_SET[24]: 1127
Assign SAMPLER_SET[25]: 1382  LLC: 2048
SAMPLER_SET[25]: 1382
Assign SAMPLER_SET[26]: 647  LLC: 2048
SAMPLER_SET[26]: 647
Assign SAMPLER_SET[27]: 857  LLC: 2048
SAMPLER_SET[27]: 857
Assign SAMPLER_SET[28]: 1450  LLC: 2048
SAMPLER_SET[28]: 1450
Assign SAMPLER_SET[29]: 1160  LLC: 2048
SAMPLER_SET[29]: 1160
Assign SAMPLER_SET[30]: 1852  LLC: 2048
SAMPLER_SET[30]: 1852
Assign SAMPLER_SET[31]: 1881  LLC: 2048
SAMPLER_SET[31]: 1881
Assign SAMPLER_SET[32]: 1770  LLC: 2048
SAMPLER_SET[32]: 1770
Assign SAMPLER_SET[33]: 1622  LLC: 2048
SAMPLER_SET[33]: 1622
Assign SAMPLER_SET[34]: 275  LLC: 2048
SAMPLER_SET[34]: 275
Assign SAMPLER_SET[35]: 635  LLC: 2048
SAMPLER_SET[35]: 635
Assign SAMPLER_SET[36]: 466  LLC: 2048
SAMPLER_SET[36]: 466
Assign SAMPLER_SET[37]: 1413  LLC: 2048
SAMPLER_SET[37]: 1413
Assign SAMPLER_SET[38]: 417  LLC: 2048
SAMPLER_SET[38]: 417
Assign SAMPLER_SET[39]: 472  LLC: 2048
SAMPLER_SET[39]: 472
Assign SAMPLER_SET[40]: 1340  LLC: 2048
SAMPLER_SET[40]: 1340
Assign SAMPLER_SET[41]: 852  LLC: 2048
SAMPLER_SET[41]: 852
Assign SAMPLER_SET[42]: 1365  LLC: 2048
SAMPLER_SET[42]: 1365
Assign SAMPLER_SET[43]: 47  LLC: 2048
SAMPLER_SET[43]: 47
Assign SAMPLER_SET[44]: 823  LLC: 2048
SAMPLER_SET[44]: 823
Assign SAMPLER_SET[45]: 686  LLC: 2048
SAMPLER_SET[45]: 686
Assign SAMPLER_SET[46]: 1637  LLC: 2048
SAMPLER_SET[46]: 1637
Assign SAMPLER_SET[47]: 1115  LLC: 2048
SAMPLER_SET[47]: 1115
Assign SAMPLER_SET[48]: 986  LLC: 2048
SAMPLER_SET[48]: 986
Assign SAMPLER_SET[49]: 258  LLC: 2048
SAMPLER_SET[49]: 258
Assign SAMPLER_SET[50]: 633  LLC: 2048
SAMPLER_SET[50]: 633
Assign SAMPLER_SET[51]: 920  LLC: 2048
SAMPLER_SET[51]: 920
Assign SAMPLER_SET[52]: 204  LLC: 2048
SAMPLER_SET[52]: 204
Assign SAMPLER_SET[53]: 227  LLC: 2048
SAMPLER_SET[53]: 227
Assign SAMPLER_SET[54]: 1818  LLC: 2048
SAMPLER_SET[54]: 1818
Assign SAMPLER_SET[55]: 886  LLC: 2048
SAMPLER_SET[55]: 886
Assign SAMPLER_SET[56]: 1422  LLC: 2048
SAMPLER_SET[56]: 1422
Assign SAMPLER_SET[57]: 607  LLC: 2048
SAMPLER_SET[57]: 607
Assign SAMPLER_SET[58]: 217  LLC: 2048
SAMPLER_SET[58]: 217
Assign SAMPLER_SET[59]: 1945  LLC: 2048
SAMPLER_SET[59]: 1945
Assign SAMPLER_SET[60]: 143  LLC: 2048
SAMPLER_SET[60]: 143
Assign SAMPLER_SET[61]: 1311  LLC: 2048
SAMPLER_SET[61]: 1311
Assign SAMPLER_SET[62]: 319  LLC: 2048
SAMPLER_SET[62]: 319
Assign SAMPLER_SET[63]: 1846  LLC: 2048
SAMPLER_SET[63]: 1846
Heartbeat CPU 0 instructions: 10000001 cycles: 3383272 heartbeat IPC: 2.95572 cumulative IPC: 2.95572 (Simulation time: 0 hr 0 min 20 sec) 
Heartbeat CPU 0 instructions: 20000000 cycles: 6780092 heartbeat IPC: 2.94393 cumulative IPC: 2.94981 (Simulation time: 0 hr 0 min 40 sec) 
Heartbeat CPU 0 instructions: 30000000 cycles: 10162343 heartbeat IPC: 2.95661 cumulative IPC: 2.95208 (Simulation time: 0 hr 1 min 0 sec) 
Heartbeat CPU 0 instructions: 40000002 cycles: 13536215 heartbeat IPC: 2.96395 cumulative IPC: 2.95504 (Simulation time: 0 hr 1 min 20 sec) 
Heartbeat CPU 0 instructions: 50000003 cycles: 16904914 heartbeat IPC: 2.96851 cumulative IPC: 2.95772 (Simulation time: 0 hr 1 min 40 sec) 
Heartbeat CPU 0 instructions: 60000003 cycles: 20272624 heartbeat IPC: 2.96938 cumulative IPC: 2.95966 (Simulation time: 0 hr 2 min 0 sec) 
Heartbeat CPU 0 instructions: 70000002 cycles: 23644481 heartbeat IPC: 2.96572 cumulative IPC: 2.96052 (Simulation time: 0 hr 2 min 20 sec) 
Heartbeat CPU 0 instructions: 80000000 cycles: 27017688 heartbeat IPC: 2.96454 cumulative IPC: 2.96102 (Simulation time: 0 hr 2 min 39 sec) 
Heartbeat CPU 0 instructions: 90000000 cycles: 30391485 heartbeat IPC: 2.96402 cumulative IPC: 2.96136 (Simulation time: 0 hr 2 min 59 sec) 
Heartbeat CPU 0 instructions: 100000001 cycles: 33762963 heartbeat IPC: 2.96606 cumulative IPC: 2.96183 (Simulation time: 0 hr 3 min 19 sec) 

Warmup complete CPU 0 instructions: 100000001 cycles: 33762963 (Simulation time: 0 hr 3 min 19 sec) 

Heartbeat CPU 0 instructions: 110000000 cycles: 40123594 heartbeat IPC: 1.57217 cumulative IPC: 1.57217 (Simulation time: 0 hr 3 min 32 sec) 
Heartbeat CPU 0 instructions: 120000000 cycles: 46488125 heartbeat IPC: 1.57121 cumulative IPC: 1.57169 (Simulation time: 0 hr 3 min 45 sec) 
Heartbeat CPU 0 instructions: 130000000 cycles: 52865151 heartbeat IPC: 1.56813 cumulative IPC: 1.5705 (Simulation time: 0 hr 3 min 58 sec) 
Heartbeat CPU 0 instructions: 140000003 cycles: 64128604 heartbeat IPC: 0.887827 cumulative IPC: 1.31728 (Simulation time: 0 hr 4 min 13 sec) 
Heartbeat CPU 0 instructions: 150000000 cycles: 72287548 heartbeat IPC: 1.22565 cumulative IPC: 1.29787 (Simulation time: 0 hr 4 min 26 sec) 
Heartbeat CPU 0 instructions: 160000000 cycles: 79126585 heartbeat IPC: 1.46219 cumulative IPC: 1.32265 (Simulation time: 0 hr 4 min 38 sec) 
Heartbeat CPU 0 instructions: 170000003 cycles: 86064482 heartbeat IPC: 1.44136 cumulative IPC: 1.33839 (Simulation time: 0 hr 4 min 50 sec) 
Heartbeat CPU 0 instructions: 180000000 cycles: 92814439 heartbeat IPC: 1.48149 cumulative IPC: 1.35475 (Simulation time: 0 hr 5 min 1 sec) 
Heartbeat CPU 0 instructions: 190000000 cycles: 99618081 heartbeat IPC: 1.4698 cumulative IPC: 1.36664 (Simulation time: 0 hr 5 min 13 sec) 
Heartbeat CPU 0 instructions: 200000000 cycles: 106559607 heartbeat IPC: 1.44061 cumulative IPC: 1.37369 (Simulation time: 0 hr 5 min 25 sec) 
Heartbeat CPU 0 instructions: 210000001 cycles: 113286560 heartbeat IPC: 1.48656 cumulative IPC: 1.38324 (Simulation time: 0 hr 5 min 36 sec) 
Heartbeat CPU 0 instructions: 220000000 cycles: 120089244 heartbeat IPC: 1.47001 cumulative IPC: 1.39007 (Simulation time: 0 hr 5 min 48 sec) 
Heartbeat CPU 0 instructions: 230000001 cycles: 126920852 heartbeat IPC: 1.46378 cumulative IPC: 1.39548 (Simulation time: 0 hr 6 min 0 sec) 
Heartbeat CPU 0 instructions: 240000000 cycles: 133668313 heartbeat IPC: 1.48204 cumulative IPC: 1.40133 (Simulation time: 0 hr 6 min 11 sec) 
Heartbeat CPU 0 instructions: 250000000 cycles: 140523503 heartbeat IPC: 1.45875 cumulative IPC: 1.40501 (Simulation time: 0 hr 6 min 23 sec) 
Heartbeat CPU 0 instructions: 260000000 cycles: 147245464 heartbeat IPC: 1.48766 cumulative IPC: 1.40991 (Simulation time: 0 hr 6 min 34 sec) 
Heartbeat CPU 0 instructions: 270000001 cycles: 153983644 heartbeat IPC: 1.48408 cumulative IPC: 1.41407 (Simulation time: 0 hr 6 min 46 sec) 
Heartbeat CPU 0 instructions: 280000000 cycles: 160857938 heartbeat IPC: 1.45469 cumulative IPC: 1.41626 (Simulation time: 0 hr 6 min 58 sec) 
Heartbeat CPU 0 instructions: 290000000 cycles: 167568162 heartbeat IPC: 1.49026 cumulative IPC: 1.41997 (Simulation time: 0 hr 7 min 9 sec) 
Heartbeat CPU 0 instructions: 300000001 cycles: 174262070 heartbeat IPC: 1.4939 cumulative IPC: 1.4235 (Simulation time: 0 hr 7 min 21 sec) 
Heartbeat CPU 0 instructions: 310000000 cycles: 181138377 heartbeat IPC: 1.45427 cumulative IPC: 1.42493 (Simulation time: 0 hr 7 min 33 sec) 
Heartbeat CPU 0 instructions: 320000001 cycles: 187825986 heartbeat IPC: 1.4953 cumulative IPC: 1.42799 (Simulation time: 0 hr 7 min 45 sec) 
Heartbeat CPU 0 instructions: 330000000 cycles: 194518898 heartbeat IPC: 1.49412 cumulative IPC: 1.43074 (Simulation time: 0 hr 7 min 56 sec) 
Heartbeat CPU 0 instructions: 340000000 cycles: 201202514 heartbeat IPC: 1.4962 cumulative IPC: 1.43335 (Simulation time: 0 hr 8 min 8 sec) 
Heartbeat CPU 0 instructions: 350000003 cycles: 207869068 heartbeat IPC: 1.50003 cumulative IPC: 1.43591 (Simulation time: 0 hr 8 min 19 sec) 
Heartbeat CPU 0 instructions: 360000002 cycles: 214539858 heartbeat IPC: 1.49907 cumulative IPC: 1.43824 (Simulation time: 0 hr 8 min 31 sec) 
Heartbeat CPU 0 instructions: 370000001 cycles: 221204522 heartbeat IPC: 1.50045 cumulative IPC: 1.44045 (Simulation time: 0 hr 8 min 43 sec) 
Heartbeat CPU 0 instructions: 380000001 cycles: 227891613 heartbeat IPC: 1.49542 cumulative IPC: 1.44234 (Simulation time: 0 hr 8 min 54 sec) 
Heartbeat CPU 0 instructions: 390000000 cycles: 234595555 heartbeat IPC: 1.49166 cumulative IPC: 1.44399 (Simulation time: 0 hr 9 min 6 sec) 
Heartbeat CPU 0 instructions: 400000001 cycles: 247933928 heartbeat IPC: 0.749717 cumulative IPC: 1.40075 (Simulation time: 0 hr 9 min 23 sec) 
Heartbeat CPU 0 instructions: 410000000 cycles: 254802808 heartbeat IPC: 1.45584 cumulative IPC: 1.40246 (Simulation time: 0 hr 9 min 36 sec) 
Heartbeat CPU 0 instructions: 420000002 cycles: 261773123 heartbeat IPC: 1.43466 cumulative IPC: 1.40345 (Simulation time: 0 hr 9 min 50 sec) 
Heartbeat CPU 0 instructions: 430000002 cycles: 268793474 heartbeat IPC: 1.42443 cumulative IPC: 1.40407 (Simulation time: 0 hr 10 min 3 sec) 
Heartbeat CPU 0 instructions: 440000000 cycles: 275290712 heartbeat IPC: 1.53912 cumulative IPC: 1.40771 (Simulation time: 0 hr 10 min 15 sec) 
Heartbeat CPU 0 instructions: 450000000 cycles: 281735373 heartbeat IPC: 1.55167 cumulative IPC: 1.41145 (Simulation time: 0 hr 10 min 28 sec) 
Heartbeat CPU 0 instructions: 460000003 cycles: 288237923 heartbeat IPC: 1.53786 cumulative IPC: 1.41468 (Simulation time: 0 hr 10 min 40 sec) 
Heartbeat CPU 0 instructions: 470000000 cycles: 294793508 heartbeat IPC: 1.52542 cumulative IPC: 1.41746 (Simulation time: 0 hr 10 min 53 sec) 
Heartbeat CPU 0 instructions: 480000001 cycles: 301177592 heartbeat IPC: 1.5664 cumulative IPC: 1.42101 (Simulation time: 0 hr 11 min 6 sec) 
Heartbeat CPU 0 instructions: 490000002 cycles: 307727486 heartbeat IPC: 1.52674 cumulative IPC: 1.42354 (Simulation time: 0 hr 11 min 18 sec) 
Heartbeat CPU 0 instructions: 500000001 cycles: 314152349 heartbeat IPC: 1.55645 cumulative IPC: 1.42659 (Simulation time: 0 hr 11 min 31 sec) 
Heartbeat CPU 0 instructions: 510000002 cycles: 320509570 heartbeat IPC: 1.57301 cumulative IPC: 1.42983 (Simulation time: 0 hr 11 min 43 sec) 
Heartbeat CPU 0 instructions: 520000002 cycles: 326796723 heartbeat IPC: 1.59055 cumulative IPC: 1.43328 (Simulation time: 0 hr 11 min 56 sec) 
Heartbeat CPU 0 instructions: 530000001 cycles: 333101916 heartbeat IPC: 1.58599 cumulative IPC: 1.4365 (Simulation time: 0 hr 12 min 8 sec) 
Heartbeat CPU 0 instructions: 540000002 cycles: 339486723 heartbeat IPC: 1.56622 cumulative IPC: 1.43921 (Simulation time: 0 hr 12 min 21 sec) 
Heartbeat CPU 0 instructions: 550000000 cycles: 345716426 heartbeat IPC: 1.60521 cumulative IPC: 1.44252 (Simulation time: 0 hr 12 min 33 sec) 
Heartbeat CPU 0 instructions: 560000000 cycles: 351990630 heartbeat IPC: 1.59383 cumulative IPC: 1.44551 (Simulation time: 0 hr 12 min 45 sec) 
Heartbeat CPU 0 instructions: 570000001 cycles: 365623966 heartbeat IPC: 0.733496 cumulative IPC: 1.41626 (Simulation time: 0 hr 13 min 4 sec) 
Heartbeat CPU 0 instructions: 580000002 cycles: 371915626 heartbeat IPC: 1.58941 cumulative IPC: 1.41948 (Simulation time: 0 hr 13 min 19 sec) 
Heartbeat CPU 0 instructions: 590000002 cycles: 379464118 heartbeat IPC: 1.32477 cumulative IPC: 1.41741 (Simulation time: 0 hr 13 min 32 sec) 
Heartbeat CPU 0 instructions: 600000003 cycles: 386355863 heartbeat IPC: 1.45101 cumulative IPC: 1.41807 (Simulation time: 0 hr 13 min 47 sec) 
Heartbeat CPU 0 instructions: 610000001 cycles: 393306587 heartbeat IPC: 1.4387 cumulative IPC: 1.41846 (Simulation time: 0 hr 14 min 2 sec) 
Heartbeat CPU 0 instructions: 620000002 cycles: 400203699 heartbeat IPC: 1.44988 cumulative IPC: 1.41906 (Simulation time: 0 hr 14 min 17 sec) 
Heartbeat CPU 0 instructions: 630000002 cycles: 407073561 heartbeat IPC: 1.45563 cumulative IPC: 1.41973 (Simulation time: 0 hr 14 min 31 sec) 
Heartbeat CPU 0 instructions: 640000002 cycles: 413965721 heartbeat IPC: 1.45092 cumulative IPC: 1.42029 (Simulation time: 0 hr 14 min 46 sec) 
Heartbeat CPU 0 instructions: 650000000 cycles: 420776342 heartbeat IPC: 1.46829 cumulative IPC: 1.42114 (Simulation time: 0 hr 15 min 1 sec) 
Heartbeat CPU 0 instructions: 660000000 cycles: 427537022 heartbeat IPC: 1.47914 cumulative IPC: 1.42214 (Simulation time: 0 hr 15 min 15 sec) 
Heartbeat CPU 0 instructions: 670000002 cycles: 441000998 heartbeat IPC: 0.742723 cumulative IPC: 1.39967 (Simulation time: 0 hr 15 min 36 sec) 
Heartbeat CPU 0 instructions: 680000002 cycles: 447949380 heartbeat IPC: 1.43918 cumulative IPC: 1.40034 (Simulation time: 0 hr 15 min 50 sec) 
Heartbeat CPU 0 instructions: 690000000 cycles: 455035967 heartbeat IPC: 1.41112 cumulative IPC: 1.40052 (Simulation time: 0 hr 16 min 4 sec) 
Heartbeat CPU 0 instructions: 700000001 cycles: 462004429 heartbeat IPC: 1.43504 cumulative IPC: 1.40108 (Simulation time: 0 hr 16 min 19 sec) 
Heartbeat CPU 0 instructions: 710000001 cycles: 468921517 heartbeat IPC: 1.4457 cumulative IPC: 1.40179 (Simulation time: 0 hr 16 min 33 sec) 
Heartbeat CPU 0 instructions: 720000001 cycles: 475775696 heartbeat IPC: 1.45896 cumulative IPC: 1.40267 (Simulation time: 0 hr 16 min 48 sec) 
Heartbeat CPU 0 instructions: 730000001 cycles: 482643349 heartbeat IPC: 1.4561 cumulative IPC: 1.40349 (Simulation time: 0 hr 17 min 2 sec) 
Heartbeat CPU 0 instructions: 740000000 cycles: 489479497 heartbeat IPC: 1.46281 cumulative IPC: 1.40438 (Simulation time: 0 hr 17 min 16 sec) 
Heartbeat CPU 0 instructions: 750000000 cycles: 496248939 heartbeat IPC: 1.47723 cumulative IPC: 1.40545 (Simulation time: 0 hr 17 min 31 sec) 
Heartbeat CPU 0 instructions: 760000001 cycles: 509253935 heartbeat IPC: 0.768935 cumulative IPC: 1.38804 (Simulation time: 0 hr 17 min 50 sec) 
Heartbeat CPU 0 instructions: 770000000 cycles: 515804702 heartbeat IPC: 1.52654 cumulative IPC: 1.38992 (Simulation time: 0 hr 18 min 4 sec) 
Heartbeat CPU 0 instructions: 780000001 cycles: 523205436 heartbeat IPC: 1.35122 cumulative IPC: 1.38934 (Simulation time: 0 hr 18 min 19 sec) 
Heartbeat CPU 0 instructions: 790000000 cycles: 529572844 heartbeat IPC: 1.5705 cumulative IPC: 1.39166 (Simulation time: 0 hr 18 min 32 sec) 
Heartbeat CPU 0 instructions: 800000003 cycles: 535925971 heartbeat IPC: 1.57403 cumulative IPC: 1.39397 (Simulation time: 0 hr 18 min 46 sec) 
Heartbeat CPU 0 instructions: 810000002 cycles: 542279951 heartbeat IPC: 1.57382 cumulative IPC: 1.39622 (Simulation time: 0 hr 19 min 0 sec) 
Heartbeat CPU 0 instructions: 820000003 cycles: 548634812 heartbeat IPC: 1.5736 cumulative IPC: 1.39841 (Simulation time: 0 hr 19 min 13 sec) 
Heartbeat CPU 0 instructions: 830000000 cycles: 554988311 heartbeat IPC: 1.57394 cumulative IPC: 1.40055 (Simulation time: 0 hr 19 min 27 sec) 
Heartbeat CPU 0 instructions: 840000003 cycles: 561358732 heartbeat IPC: 1.56976 cumulative IPC: 1.40259 (Simulation time: 0 hr 19 min 41 sec) 
Heartbeat CPU 0 instructions: 850000000 cycles: 567739643 heartbeat IPC: 1.56717 cumulative IPC: 1.40456 (Simulation time: 0 hr 19 min 54 sec) 
Heartbeat CPU 0 instructions: 860000001 cycles: 574102271 heartbeat IPC: 1.57168 cumulative IPC: 1.40652 (Simulation time: 0 hr 20 min 8 sec) 
Heartbeat CPU 0 instructions: 870000002 cycles: 580471866 heartbeat IPC: 1.56996 cumulative IPC: 1.40843 (Simulation time: 0 hr 20 min 22 sec) 
Heartbeat CPU 0 instructions: 880000000 cycles: 586872417 heartbeat IPC: 1.56237 cumulative IPC: 1.41021 (Simulation time: 0 hr 20 min 35 sec) 
Heartbeat CPU 0 instructions: 890000003 cycles: 593281339 heartbeat IPC: 1.56033 cumulative IPC: 1.41193 (Simulation time: 0 hr 20 min 48 sec) 
Heartbeat CPU 0 instructions: 900000002 cycles: 599684231 heartbeat IPC: 1.56179 cumulative IPC: 1.41362 (Simulation time: 0 hr 21 min 2 sec) 
Heartbeat CPU 0 instructions: 910000000 cycles: 606088601 heartbeat IPC: 1.56143 cumulative IPC: 1.41528 (Simulation time: 0 hr 21 min 15 sec) 
Heartbeat CPU 0 instructions: 920000001 cycles: 612487330 heartbeat IPC: 1.56281 cumulative IPC: 1.41691 (Simulation time: 0 hr 21 min 28 sec) 
Heartbeat CPU 0 instructions: 930000003 cycles: 618894524 heartbeat IPC: 1.56075 cumulative IPC: 1.41848 (Simulation time: 0 hr 21 min 42 sec) 
Heartbeat CPU 0 instructions: 940000000 cycles: 625294828 heartbeat IPC: 1.56243 cumulative IPC: 1.42004 (Simulation time: 0 hr 21 min 55 sec) 
Heartbeat CPU 0 instructions: 950000000 cycles: 631682964 heartbeat IPC: 1.5654 cumulative IPC: 1.42159 (Simulation time: 0 hr 22 min 9 sec) 
Heartbeat CPU 0 instructions: 960000003 cycles: 638027248 heartbeat IPC: 1.57622 cumulative IPC: 1.42322 (Simulation time: 0 hr 22 min 22 sec) 
Heartbeat CPU 0 instructions: 970000001 cycles: 644370666 heartbeat IPC: 1.57644 cumulative IPC: 1.42481 (Simulation time: 0 hr 22 min 35 sec) 
Heartbeat CPU 0 instructions: 980000001 cycles: 650755423 heartbeat IPC: 1.56623 cumulative IPC: 1.42627 (Simulation time: 0 hr 22 min 48 sec) 
Heartbeat CPU 0 instructions: 990000000 cycles: 657143095 heartbeat IPC: 1.56552 cumulative IPC: 1.4277 (Simulation time: 0 hr 23 min 2 sec) 
Heartbeat CPU 0 instructions: 1000000000 cycles: 663545284 heartbeat IPC: 1.56197 cumulative IPC: 1.42907 (Simulation time: 0 hr 23 min 15 sec) 
Heartbeat CPU 0 instructions: 1010000002 cycles: 669943359 heartbeat IPC: 1.56297 cumulative IPC: 1.43041 (Simulation time: 0 hr 23 min 28 sec) 
Heartbeat CPU 0 instructions: 1020000000 cycles: 676273617 heartbeat IPC: 1.57971 cumulative IPC: 1.43188 (Simulation time: 0 hr 23 min 42 sec) 
Heartbeat CPU 0 instructions: 1030000002 cycles: 682555359 heartbeat IPC: 1.59192 cumulative IPC: 1.43343 (Simulation time: 0 hr 23 min 57 sec) 
Heartbeat CPU 0 instructions: 1040000002 cycles: 688838534 heartbeat IPC: 1.59155 cumulative IPC: 1.43495 (Simulation time: 0 hr 24 min 11 sec) 
Heartbeat CPU 0 instructions: 1050000003 cycles: 695114644 heartbeat IPC: 1.59334 cumulative IPC: 1.43645 (Simulation time: 0 hr 24 min 25 sec) 
Heartbeat CPU 0 instructions: 1060000000 cycles: 701515192 heartbeat IPC: 1.56237 cumulative IPC: 1.43766 (Simulation time: 0 hr 24 min 39 sec) 
Heartbeat CPU 0 instructions: 1070000000 cycles: 707956698 heartbeat IPC: 1.55243 cumulative IPC: 1.43876 (Simulation time: 0 hr 24 min 52 sec) 
Heartbeat CPU 0 instructions: 1080000001 cycles: 714394367 heartbeat IPC: 1.55336 cumulative IPC: 1.43984 (Simulation time: 0 hr 25 min 5 sec) 
Heartbeat CPU 0 instructions: 1090000000 cycles: 720836062 heartbeat IPC: 1.55239 cumulative IPC: 1.44089 (Simulation time: 0 hr 25 min 19 sec) 
Heartbeat CPU 0 instructions: 1100000000 cycles: 727276345 heartbeat IPC: 1.55273 cumulative IPC: 1.44193 (Simulation time: 0 hr 25 min 32 sec) 
Finished CPU 0 instructions: 1000000000 cycles: 693513383 cumulative IPC: 1.44193 (Simulation time: 0 hr 25 min 32 sec) 

ChampSim completed all CPUs

Region of Interest Statistics

CPU 0 cumulative IPC: 1.44193 instructions: 1000000000 cycles: 693513383
L1D TOTAL     ACCESS:  184839317  HIT:  181948255  MISS:    2891062
L1D LOAD      ACCESS:  111792460  HIT:  109757800  MISS:    2034660
L1D RFO       ACCESS:   73046857  HIT:   72190455  MISS:     856402
L1D PREFETCH  ACCESS:          0  HIT:          0  MISS:          0
L1D WRITEBACK ACCESS:          0  HIT:          0  MISS:          0
L1D PREFETCH  REQUESTED:          0  ISSUED:          0  USEFUL:          0  USELESS:          0
L1D AVERAGE MISS LATENCY: 117.321 cycles
L1I TOTAL     ACCESS:  160108177  HIT:  157991315  MISS:    2116862
L1I LOAD      ACCESS:  160108177  HIT:  157991315  MISS:    2116862
L1I RFO       ACCESS:          0  HIT:          0  MISS:          0
L1I PREFETCH  ACCESS:          0  HIT:          0  MISS:          0
L1I WRITEBACK ACCESS:          0  HIT:          0  MISS:          0
L1I PREFETCH  REQUESTED:          0  ISSUED:          0  USEFUL:          0  USELESS:          0
L1I AVERAGE MISS LATENCY: 15.4407 cycles
L2C TOTAL     ACCESS:    6010308  HIT:    4568918  MISS:    1441390
L2C LOAD      ACCESS:    4151456  HIT:    3143660  MISS:    1007796
L2C RFO       ACCESS:     854028  HIT:     425959  MISS:     428069
L2C PREFETCH  ACCESS:          0  HIT:          0  MISS:          0
L2C WRITEBACK ACCESS:    1004824  HIT:     999299  MISS:       5525
L2C PREFETCH  REQUESTED:          0  ISSUED:          0  USEFUL:          0  USELESS:          0
L2C AVERAGE MISS LATENCY: 215.309 cycles
LLC TOTAL     ACCESS:    1960106  HIT:     362906  MISS:    1597200
LLC LOAD      ACCESS:    1007792  HIT:     202014  MISS:     805778
LLC RFO       ACCESS:     428062  HIT:      20812  MISS:     407250
LLC PREFETCH  ACCESS:          0  HIT:          0  MISS:          0
LLC WRITEBACK ACCESS:     524252  HIT:     140080  MISS:     384172
LLC PREFETCH  REQUESTED:          0  ISSUED:          0  USEFUL:          0  USELESS:          0
LLC AVERAGE MISS LATENCY: 157.801 cycles
Major fault: 0 Minor fault: 9674
==============================
Perceptron RRIP Stats:
   Num Updates:          56027
   Num Primary Trains:   1532
   Num Secondary Trains: 1633
==============================
primary_perceptron #0: 0 -4 -2 2 -2 2 -4 -2 0 -2 -2 2 2 -4 0 -22 
secondary_perceptron #0: 1 -7 -1 3 1 1 -3 -5 -1 1 -1 3 -3 -9 -1 3 -5 -3 -1 3 -29 


DRAM Statistics
 CHANNEL 0
 RQ ROW_BUFFER_HIT:     341269  ROW_BUFFER_MISS:     871718
 DBUS_CONGESTED:     488095
 WQ ROW_BUFFER_HIT:     168910  ROW_BUFFER_MISS:     308329  FULL:       6638

 AVG_CONGESTED_CYCLE: 6

CPU 0 Branch Prediction Accuracy: 92.2102% MPKI: 3.05576 Average ROB Occupancy at Mispredict: 45.1663

Branch types
NOT_BRANCH: 960772106 96.0772%
BRANCH_DIRECT_JUMP: 1534501 0.15345%
BRANCH_INDIRECT: 58107 0.0058107%
BRANCH_CONDITIONAL: 31962300 3.19623%
BRANCH_DIRECT_CALL: 1481511 0.148151%
BRANCH_INDIRECT_CALL: 1354833 0.135483%
BRANCH_RETURN: 2836344 0.283634%
BRANCH_OTHER: 0 0%

