
*** ChampSim Multicore Out-of-Order Simulator ***

Warmup Instructions: 100000000
Simulation Instructions: 1000000000
Number of CPUs: 1
LLC sets: 2048
LLC ways: 16
Off-chip DRAM Size: 4096 MB Channels: 1 Width: 64-bit Data Rate: 3200 MT/s

CPU 0 runs /scratch/user/kevin.weston/dpc3-traces/625.champsimtrace.xz
CPU 0 Bimodal branch predictor
Initialize SRRIP state
Heartbeat CPU 0 instructions: 10000001 cycles: 3383272 heartbeat IPC: 2.95572 cumulative IPC: 2.95572 (Simulation time: 0 hr 0 min 20 sec) 
Heartbeat CPU 0 instructions: 20000000 cycles: 6780092 heartbeat IPC: 2.94393 cumulative IPC: 2.94981 (Simulation time: 0 hr 0 min 40 sec) 
Heartbeat CPU 0 instructions: 30000000 cycles: 10162343 heartbeat IPC: 2.95661 cumulative IPC: 2.95208 (Simulation time: 0 hr 1 min 0 sec) 
Heartbeat CPU 0 instructions: 40000002 cycles: 13536215 heartbeat IPC: 2.96395 cumulative IPC: 2.95504 (Simulation time: 0 hr 1 min 20 sec) 
Heartbeat CPU 0 instructions: 50000003 cycles: 16904914 heartbeat IPC: 2.96851 cumulative IPC: 2.95772 (Simulation time: 0 hr 1 min 40 sec) 
Heartbeat CPU 0 instructions: 60000003 cycles: 20272624 heartbeat IPC: 2.96938 cumulative IPC: 2.95966 (Simulation time: 0 hr 2 min 0 sec) 
Heartbeat CPU 0 instructions: 70000002 cycles: 23644481 heartbeat IPC: 2.96572 cumulative IPC: 2.96052 (Simulation time: 0 hr 2 min 20 sec) 
Heartbeat CPU 0 instructions: 80000000 cycles: 27017688 heartbeat IPC: 2.96454 cumulative IPC: 2.96102 (Simulation time: 0 hr 2 min 40 sec) 
Heartbeat CPU 0 instructions: 90000000 cycles: 30391485 heartbeat IPC: 2.96402 cumulative IPC: 2.96136 (Simulation time: 0 hr 3 min 0 sec) 
Heartbeat CPU 0 instructions: 100000001 cycles: 33762964 heartbeat IPC: 2.96606 cumulative IPC: 2.96183 (Simulation time: 0 hr 3 min 20 sec) 

Warmup complete CPU 0 instructions: 100000001 cycles: 33762964 (Simulation time: 0 hr 3 min 20 sec) 

Heartbeat CPU 0 instructions: 110000000 cycles: 40115059 heartbeat IPC: 1.57428 cumulative IPC: 1.57428 (Simulation time: 0 hr 3 min 32 sec) 
Heartbeat CPU 0 instructions: 120000000 cycles: 46487286 heartbeat IPC: 1.56931 cumulative IPC: 1.57179 (Simulation time: 0 hr 3 min 45 sec) 
Heartbeat CPU 0 instructions: 130000000 cycles: 52888827 heartbeat IPC: 1.56212 cumulative IPC: 1.56856 (Simulation time: 0 hr 3 min 58 sec) 
Heartbeat CPU 0 instructions: 140000003 cycles: 64029311 heartbeat IPC: 0.897627 cumulative IPC: 1.3216 (Simulation time: 0 hr 4 min 13 sec) 
Heartbeat CPU 0 instructions: 150000000 cycles: 72084132 heartbeat IPC: 1.24149 cumulative IPC: 1.30476 (Simulation time: 0 hr 4 min 25 sec) 
Heartbeat CPU 0 instructions: 160000000 cycles: 78738481 heartbeat IPC: 1.50278 cumulative IPC: 1.33406 (Simulation time: 0 hr 4 min 37 sec) 
Heartbeat CPU 0 instructions: 170000003 cycles: 85502025 heartbeat IPC: 1.47852 cumulative IPC: 1.35294 (Simulation time: 0 hr 4 min 48 sec) 
Heartbeat CPU 0 instructions: 180000000 cycles: 92100231 heartbeat IPC: 1.51556 cumulative IPC: 1.37134 (Simulation time: 0 hr 5 min 0 sec) 
Heartbeat CPU 0 instructions: 190000000 cycles: 98739479 heartbeat IPC: 1.50619 cumulative IPC: 1.38512 (Simulation time: 0 hr 5 min 11 sec) 
Heartbeat CPU 0 instructions: 200000000 cycles: 105554692 heartbeat IPC: 1.46731 cumulative IPC: 1.39292 (Simulation time: 0 hr 5 min 23 sec) 
Heartbeat CPU 0 instructions: 210000001 cycles: 112170095 heartbeat IPC: 1.51162 cumulative IPC: 1.40293 (Simulation time: 0 hr 5 min 34 sec) 
Heartbeat CPU 0 instructions: 220000000 cycles: 118879039 heartbeat IPC: 1.49055 cumulative IPC: 1.40984 (Simulation time: 0 hr 5 min 45 sec) 
Heartbeat CPU 0 instructions: 230000001 cycles: 125632010 heartbeat IPC: 1.48083 cumulative IPC: 1.41506 (Simulation time: 0 hr 5 min 57 sec) 
Heartbeat CPU 0 instructions: 240000000 cycles: 132285930 heartbeat IPC: 1.50287 cumulative IPC: 1.42099 (Simulation time: 0 hr 6 min 8 sec) 
Heartbeat CPU 0 instructions: 250000000 cycles: 139072938 heartbeat IPC: 1.4734 cumulative IPC: 1.42437 (Simulation time: 0 hr 6 min 20 sec) 
Heartbeat CPU 0 instructions: 260000000 cycles: 145739056 heartbeat IPC: 1.50012 cumulative IPC: 1.42888 (Simulation time: 0 hr 6 min 31 sec) 
Heartbeat CPU 0 instructions: 270000001 cycles: 152399284 heartbeat IPC: 1.50145 cumulative IPC: 1.43295 (Simulation time: 0 hr 6 min 43 sec) 
Heartbeat CPU 0 instructions: 280000000 cycles: 159196368 heartbeat IPC: 1.47122 cumulative IPC: 1.43502 (Simulation time: 0 hr 6 min 54 sec) 
Heartbeat CPU 0 instructions: 290000000 cycles: 165847776 heartbeat IPC: 1.50344 cumulative IPC: 1.43847 (Simulation time: 0 hr 7 min 6 sec) 
Heartbeat CPU 0 instructions: 300000001 cycles: 172477708 heartbeat IPC: 1.50831 cumulative IPC: 1.44181 (Simulation time: 0 hr 7 min 17 sec) 
Heartbeat CPU 0 instructions: 310000000 cycles: 179292173 heartbeat IPC: 1.46747 cumulative IPC: 1.44301 (Simulation time: 0 hr 7 min 29 sec) 
Heartbeat CPU 0 instructions: 320000001 cycles: 185931425 heartbeat IPC: 1.50619 cumulative IPC: 1.44577 (Simulation time: 0 hr 7 min 40 sec) 
Heartbeat CPU 0 instructions: 330000000 cycles: 192543345 heartbeat IPC: 1.51242 cumulative IPC: 1.44854 (Simulation time: 0 hr 7 min 52 sec) 
Heartbeat CPU 0 instructions: 340000000 cycles: 199154134 heartbeat IPC: 1.51268 cumulative IPC: 1.45111 (Simulation time: 0 hr 8 min 3 sec) 
Heartbeat CPU 0 instructions: 350000003 cycles: 205755421 heartbeat IPC: 1.51486 cumulative IPC: 1.45355 (Simulation time: 0 hr 8 min 14 sec) 
Heartbeat CPU 0 instructions: 360000002 cycles: 212371001 heartbeat IPC: 1.51158 cumulative IPC: 1.4557 (Simulation time: 0 hr 8 min 26 sec) 
Heartbeat CPU 0 instructions: 370000001 cycles: 218978835 heartbeat IPC: 1.51336 cumulative IPC: 1.45776 (Simulation time: 0 hr 8 min 37 sec) 
Heartbeat CPU 0 instructions: 380000001 cycles: 225607426 heartbeat IPC: 1.50862 cumulative IPC: 1.45952 (Simulation time: 0 hr 8 min 48 sec) 
Heartbeat CPU 0 instructions: 390000000 cycles: 232243394 heartbeat IPC: 1.50694 cumulative IPC: 1.4611 (Simulation time: 0 hr 9 min 0 sec) 
Heartbeat CPU 0 instructions: 400000001 cycles: 243564805 heartbeat IPC: 0.883282 cumulative IPC: 1.42992 (Simulation time: 0 hr 9 min 15 sec) 
Heartbeat CPU 0 instructions: 410000001 cycles: 250078512 heartbeat IPC: 1.53522 cumulative IPC: 1.43309 (Simulation time: 0 hr 9 min 28 sec) 
Heartbeat CPU 0 instructions: 420000002 cycles: 257548681 heartbeat IPC: 1.33866 cumulative IPC: 1.42994 (Simulation time: 0 hr 9 min 42 sec) 
Heartbeat CPU 0 instructions: 430000002 cycles: 264520376 heartbeat IPC: 1.43437 cumulative IPC: 1.43007 (Simulation time: 0 hr 9 min 55 sec) 
Heartbeat CPU 0 instructions: 440000000 cycles: 270812256 heartbeat IPC: 1.58935 cumulative IPC: 1.4343 (Simulation time: 0 hr 10 min 7 sec) 
Heartbeat CPU 0 instructions: 450000000 cycles: 277068764 heartbeat IPC: 1.59834 cumulative IPC: 1.43852 (Simulation time: 0 hr 10 min 20 sec) 
Heartbeat CPU 0 instructions: 460000003 cycles: 283381957 heartbeat IPC: 1.58398 cumulative IPC: 1.4422 (Simulation time: 0 hr 10 min 32 sec) 
Heartbeat CPU 0 instructions: 470000000 cycles: 289738097 heartbeat IPC: 1.57328 cumulative IPC: 1.44545 (Simulation time: 0 hr 10 min 44 sec) 
Heartbeat CPU 0 instructions: 480000001 cycles: 296021255 heartbeat IPC: 1.59156 cumulative IPC: 1.44895 (Simulation time: 0 hr 10 min 56 sec) 
Heartbeat CPU 0 instructions: 490000002 cycles: 302393977 heartbeat IPC: 1.56919 cumulative IPC: 1.45181 (Simulation time: 0 hr 11 min 9 sec) 
Heartbeat CPU 0 instructions: 500000001 cycles: 308697986 heartbeat IPC: 1.58629 cumulative IPC: 1.45489 (Simulation time: 0 hr 11 min 21 sec) 
Heartbeat CPU 0 instructions: 510000002 cycles: 314997420 heartbeat IPC: 1.58744 cumulative IPC: 1.45786 (Simulation time: 0 hr 11 min 33 sec) 
Heartbeat CPU 0 instructions: 520000002 cycles: 321230885 heartbeat IPC: 1.60424 cumulative IPC: 1.46103 (Simulation time: 0 hr 11 min 45 sec) 
Heartbeat CPU 0 instructions: 530000001 cycles: 327481601 heartbeat IPC: 1.59982 cumulative IPC: 1.46399 (Simulation time: 0 hr 11 min 58 sec) 
Heartbeat CPU 0 instructions: 540000002 cycles: 333799557 heartbeat IPC: 1.58279 cumulative IPC: 1.46649 (Simulation time: 0 hr 12 min 10 sec) 
Heartbeat CPU 0 instructions: 550000000 cycles: 339999090 heartbeat IPC: 1.61302 cumulative IPC: 1.46945 (Simulation time: 0 hr 12 min 22 sec) 
Heartbeat CPU 0 instructions: 560000000 cycles: 346201951 heartbeat IPC: 1.61216 cumulative IPC: 1.47229 (Simulation time: 0 hr 12 min 34 sec) 
Heartbeat CPU 0 instructions: 570000001 cycles: 357737768 heartbeat IPC: 0.866865 cumulative IPC: 1.45073 (Simulation time: 0 hr 12 min 51 sec) 
Heartbeat CPU 0 instructions: 580000002 cycles: 363892966 heartbeat IPC: 1.62464 cumulative IPC: 1.45397 (Simulation time: 0 hr 13 min 5 sec) 
Heartbeat CPU 0 instructions: 590000002 cycles: 371807303 heartbeat IPC: 1.26353 cumulative IPC: 1.44951 (Simulation time: 0 hr 13 min 18 sec) 
Heartbeat CPU 0 instructions: 600000003 cycles: 378636155 heartbeat IPC: 1.46438 cumulative IPC: 1.44981 (Simulation time: 0 hr 13 min 33 sec) 
Heartbeat CPU 0 instructions: 610000001 cycles: 385507383 heartbeat IPC: 1.45534 cumulative IPC: 1.44992 (Simulation time: 0 hr 13 min 47 sec) 
Heartbeat CPU 0 instructions: 620000002 cycles: 392335754 heartbeat IPC: 1.46448 cumulative IPC: 1.45019 (Simulation time: 0 hr 14 min 1 sec) 
Heartbeat CPU 0 instructions: 630000002 cycles: 399158933 heartbeat IPC: 1.46559 cumulative IPC: 1.45048 (Simulation time: 0 hr 14 min 15 sec) 
Heartbeat CPU 0 instructions: 640000002 cycles: 406004618 heartbeat IPC: 1.46077 cumulative IPC: 1.45067 (Simulation time: 0 hr 14 min 29 sec) 
Heartbeat CPU 0 instructions: 650000000 cycles: 412794557 heartbeat IPC: 1.47277 cumulative IPC: 1.45107 (Simulation time: 0 hr 14 min 44 sec) 
Heartbeat CPU 0 instructions: 660000000 cycles: 419557810 heartbeat IPC: 1.47858 cumulative IPC: 1.45155 (Simulation time: 0 hr 14 min 58 sec) 
Heartbeat CPU 0 instructions: 670000000 cycles: 430989435 heartbeat IPC: 0.874766 cumulative IPC: 1.43495 (Simulation time: 0 hr 15 min 15 sec) 
Heartbeat CPU 0 instructions: 680000002 cycles: 437811328 heartbeat IPC: 1.46587 cumulative IPC: 1.43547 (Simulation time: 0 hr 15 min 29 sec) 
Heartbeat CPU 0 instructions: 690000000 cycles: 445241768 heartbeat IPC: 1.34582 cumulative IPC: 1.43385 (Simulation time: 0 hr 15 min 43 sec) 
Heartbeat CPU 0 instructions: 700000001 cycles: 452110969 heartbeat IPC: 1.45577 cumulative IPC: 1.43421 (Simulation time: 0 hr 15 min 57 sec) 
Heartbeat CPU 0 instructions: 710000001 cycles: 458961622 heartbeat IPC: 1.45971 cumulative IPC: 1.43462 (Simulation time: 0 hr 16 min 11 sec) 
Heartbeat CPU 0 instructions: 720000001 cycles: 465772146 heartbeat IPC: 1.46832 cumulative IPC: 1.43515 (Simulation time: 0 hr 16 min 25 sec) 
Heartbeat CPU 0 instructions: 730000001 cycles: 472604224 heartbeat IPC: 1.46368 cumulative IPC: 1.4356 (Simulation time: 0 hr 16 min 40 sec) 
Heartbeat CPU 0 instructions: 740000000 cycles: 479411594 heartbeat IPC: 1.469 cumulative IPC: 1.43611 (Simulation time: 0 hr 16 min 54 sec) 
Heartbeat CPU 0 instructions: 750000000 cycles: 486194375 heartbeat IPC: 1.47432 cumulative IPC: 1.43668 (Simulation time: 0 hr 17 min 8 sec) 
Heartbeat CPU 0 instructions: 760000001 cycles: 498204577 heartbeat IPC: 0.832626 cumulative IPC: 1.42106 (Simulation time: 0 hr 17 min 26 sec) 
Heartbeat CPU 0 instructions: 770000000 cycles: 504333670 heartbeat IPC: 1.63156 cumulative IPC: 1.4238 (Simulation time: 0 hr 17 min 39 sec) 
Heartbeat CPU 0 instructions: 780000001 cycles: 511966980 heartbeat IPC: 1.31005 cumulative IPC: 1.42199 (Simulation time: 0 hr 17 min 52 sec) 
Heartbeat CPU 0 instructions: 790000000 cycles: 518353332 heartbeat IPC: 1.56584 cumulative IPC: 1.42388 (Simulation time: 0 hr 18 min 6 sec) 
Heartbeat CPU 0 instructions: 800000003 cycles: 524726080 heartbeat IPC: 1.56918 cumulative IPC: 1.42577 (Simulation time: 0 hr 18 min 20 sec) 
Heartbeat CPU 0 instructions: 810000002 cycles: 531093365 heartbeat IPC: 1.57053 cumulative IPC: 1.42762 (Simulation time: 0 hr 18 min 33 sec) 
Heartbeat CPU 0 instructions: 820000003 cycles: 537467293 heartbeat IPC: 1.56889 cumulative IPC: 1.42941 (Simulation time: 0 hr 18 min 47 sec) 
Heartbeat CPU 0 instructions: 830000000 cycles: 543836572 heartbeat IPC: 1.57004 cumulative IPC: 1.43117 (Simulation time: 0 hr 19 min 0 sec) 
Heartbeat CPU 0 instructions: 840000003 cycles: 550213608 heartbeat IPC: 1.56813 cumulative IPC: 1.43286 (Simulation time: 0 hr 19 min 14 sec) 
Heartbeat CPU 0 instructions: 850000000 cycles: 556592014 heartbeat IPC: 1.56779 cumulative IPC: 1.4345 (Simulation time: 0 hr 19 min 27 sec) 
Heartbeat CPU 0 instructions: 860000001 cycles: 562958555 heartbeat IPC: 1.57071 cumulative IPC: 1.43614 (Simulation time: 0 hr 19 min 41 sec) 
Heartbeat CPU 0 instructions: 870000002 cycles: 569343606 heartbeat IPC: 1.56616 cumulative IPC: 1.43769 (Simulation time: 0 hr 19 min 54 sec) 
Heartbeat CPU 0 instructions: 880000000 cycles: 575732933 heartbeat IPC: 1.56511 cumulative IPC: 1.43919 (Simulation time: 0 hr 20 min 8 sec) 
Heartbeat CPU 0 instructions: 890000003 cycles: 582133603 heartbeat IPC: 1.56234 cumulative IPC: 1.44063 (Simulation time: 0 hr 20 min 21 sec) 
Heartbeat CPU 0 instructions: 900000002 cycles: 588517730 heartbeat IPC: 1.56638 cumulative IPC: 1.44208 (Simulation time: 0 hr 20 min 35 sec) 
Heartbeat CPU 0 instructions: 910000000 cycles: 594908812 heartbeat IPC: 1.56468 cumulative IPC: 1.44348 (Simulation time: 0 hr 20 min 48 sec) 
Heartbeat CPU 0 instructions: 920000001 cycles: 601289747 heartbeat IPC: 1.56717 cumulative IPC: 1.44487 (Simulation time: 0 hr 21 min 1 sec) 
Heartbeat CPU 0 instructions: 930000003 cycles: 607686499 heartbeat IPC: 1.56329 cumulative IPC: 1.44619 (Simulation time: 0 hr 21 min 15 sec) 
Heartbeat CPU 0 instructions: 940000000 cycles: 614073300 heartbeat IPC: 1.56573 cumulative IPC: 1.4475 (Simulation time: 0 hr 21 min 28 sec) 
Heartbeat CPU 0 instructions: 950000000 cycles: 620467215 heartbeat IPC: 1.56399 cumulative IPC: 1.44877 (Simulation time: 0 hr 21 min 41 sec) 
Heartbeat CPU 0 instructions: 960000003 cycles: 626860423 heartbeat IPC: 1.56416 cumulative IPC: 1.45001 (Simulation time: 0 hr 21 min 55 sec) 
Heartbeat CPU 0 instructions: 970000001 cycles: 633258103 heartbeat IPC: 1.56307 cumulative IPC: 1.45122 (Simulation time: 0 hr 22 min 8 sec) 
Heartbeat CPU 0 instructions: 980000001 cycles: 639651069 heartbeat IPC: 1.56422 cumulative IPC: 1.45241 (Simulation time: 0 hr 22 min 21 sec) 
Heartbeat CPU 0 instructions: 990000000 cycles: 646040208 heartbeat IPC: 1.56516 cumulative IPC: 1.45359 (Simulation time: 0 hr 22 min 35 sec) 
Heartbeat CPU 0 instructions: 1000000000 cycles: 652431799 heartbeat IPC: 1.56456 cumulative IPC: 1.45474 (Simulation time: 0 hr 22 min 48 sec) 
Heartbeat CPU 0 instructions: 1010000002 cycles: 658829042 heartbeat IPC: 1.56317 cumulative IPC: 1.45585 (Simulation time: 0 hr 23 min 2 sec) 
Heartbeat CPU 0 instructions: 1020000000 cycles: 665141631 heartbeat IPC: 1.58414 cumulative IPC: 1.45713 (Simulation time: 0 hr 23 min 16 sec) 
Heartbeat CPU 0 instructions: 1030000002 cycles: 671379893 heartbeat IPC: 1.60301 cumulative IPC: 1.45856 (Simulation time: 0 hr 23 min 30 sec) 
Heartbeat CPU 0 instructions: 1040000002 cycles: 677615848 heartbeat IPC: 1.6036 cumulative IPC: 1.45996 (Simulation time: 0 hr 23 min 44 sec) 
Heartbeat CPU 0 instructions: 1050000003 cycles: 683845439 heartbeat IPC: 1.60524 cumulative IPC: 1.46135 (Simulation time: 0 hr 23 min 59 sec) 
Heartbeat CPU 0 instructions: 1060000000 cycles: 690215057 heartbeat IPC: 1.56995 cumulative IPC: 1.46241 (Simulation time: 0 hr 24 min 12 sec) 
Heartbeat CPU 0 instructions: 1070000000 cycles: 696622701 heartbeat IPC: 1.56064 cumulative IPC: 1.46336 (Simulation time: 0 hr 24 min 25 sec) 
Heartbeat CPU 0 instructions: 1080000001 cycles: 703028009 heartbeat IPC: 1.56121 cumulative IPC: 1.46429 (Simulation time: 0 hr 24 min 39 sec) 
Heartbeat CPU 0 instructions: 1090000000 cycles: 709429567 heartbeat IPC: 1.56212 cumulative IPC: 1.46522 (Simulation time: 0 hr 24 min 52 sec) 
Heartbeat CPU 0 instructions: 1100000000 cycles: 715823997 heartbeat IPC: 1.56386 cumulative IPC: 1.46614 (Simulation time: 0 hr 25 min 5 sec) 
Finished CPU 0 instructions: 1000000000 cycles: 682061034 cumulative IPC: 1.46614 (Simulation time: 0 hr 25 min 5 sec) 

ChampSim completed all CPUs

Region of Interest Statistics

CPU 0 cumulative IPC: 1.46614 instructions: 1000000000 cycles: 682061034
L1D TOTAL     ACCESS:  185385971  HIT:  182495009  MISS:    2890962
L1D LOAD      ACCESS:  112391739  HIT:  110357163  MISS:    2034576
L1D RFO       ACCESS:   72994232  HIT:   72137846  MISS:     856386
L1D PREFETCH  ACCESS:          0  HIT:          0  MISS:          0
L1D WRITEBACK ACCESS:          0  HIT:          0  MISS:          0
L1D PREFETCH  REQUESTED:          0  ISSUED:          0  USEFUL:          0  USELESS:          0
L1D AVERAGE MISS LATENCY: 112.758 cycles
L1I TOTAL     ACCESS:  159622422  HIT:  157505559  MISS:    2116863
L1I LOAD      ACCESS:  159622422  HIT:  157505559  MISS:    2116863
L1I RFO       ACCESS:          0  HIT:          0  MISS:          0
L1I PREFETCH  ACCESS:          0  HIT:          0  MISS:          0
L1I WRITEBACK ACCESS:          0  HIT:          0  MISS:          0
L1I PREFETCH  REQUESTED:          0  ISSUED:          0  USEFUL:          0  USELESS:          0
L1I AVERAGE MISS LATENCY: 14.2437 cycles
L2C TOTAL     ACCESS:    6010164  HIT:    4574871  MISS:    1435293
L2C LOAD      ACCESS:    4151374  HIT:    3149623  MISS:    1001751
L2C RFO       ACCESS:     853979  HIT:     425458  MISS:     428521
L2C PREFETCH  ACCESS:          0  HIT:          0  MISS:          0
L2C WRITEBACK ACCESS:    1004811  HIT:     999790  MISS:       5021
L2C PREFETCH  REQUESTED:          0  ISSUED:          0  USEFUL:          0  USELESS:          0
L2C AVERAGE MISS LATENCY: 205.26 cycles
LLC TOTAL     ACCESS:    1954097  HIT:     856998  MISS:    1097099
LLC LOAD      ACCESS:    1001751  HIT:     332647  MISS:     669104
LLC RFO       ACCESS:     428518  HIT:      12506  MISS:     416012
LLC PREFETCH  ACCESS:          0  HIT:          0  MISS:          0
LLC WRITEBACK ACCESS:     523828  HIT:     511845  MISS:      11983
LLC PREFETCH  REQUESTED:          0  ISSUED:          0  USEFUL:          0  USELESS:          0
LLC AVERAGE MISS LATENCY: 215.516 cycles
Major fault: 0 Minor fault: 9674

DRAM Statistics
 CHANNEL 0
 RQ ROW_BUFFER_HIT:     283908  ROW_BUFFER_MISS:     801097
 DBUS_CONGESTED:     491420
 WQ ROW_BUFFER_HIT:     121207  ROW_BUFFER_MISS:     373600  FULL:        969

 AVG_CONGESTED_CYCLE: 6

CPU 0 Branch Prediction Accuracy: 92.2102% MPKI: 3.05576 Average ROB Occupancy at Mispredict: 44.9191

Branch types
NOT_BRANCH: 960772106 96.0772%
BRANCH_DIRECT_JUMP: 1534501 0.15345%
BRANCH_INDIRECT: 58107 0.0058107%
BRANCH_CONDITIONAL: 31962300 3.19623%
BRANCH_DIRECT_CALL: 1481511 0.148151%
BRANCH_INDIRECT_CALL: 1354833 0.135483%
BRANCH_RETURN: 2836344 0.283634%
BRANCH_OTHER: 0 0%

