
*** ChampSim Multicore Out-of-Order Simulator ***

Warmup Instructions: 100000000
Simulation Instructions: 1000000000
Number of CPUs: 1
LLC sets: 2048
LLC ways: 16
Off-chip DRAM Size: 4096 MB Channels: 1 Width: 64-bit Data Rate: 3200 MT/s

CPU 0 runs /scratch/user/kevin.weston/dpc3-traces/625.champsimtrace.xz
CPU 0 Bimodal branch predictor
Heartbeat CPU 0 instructions: 10000001 cycles: 3383272 heartbeat IPC: 2.95572 cumulative IPC: 2.95572 (Simulation time: 0 hr 0 min 20 sec) 
Heartbeat CPU 0 instructions: 20000000 cycles: 6780092 heartbeat IPC: 2.94393 cumulative IPC: 2.94981 (Simulation time: 0 hr 0 min 40 sec) 
Heartbeat CPU 0 instructions: 30000000 cycles: 10162343 heartbeat IPC: 2.95661 cumulative IPC: 2.95208 (Simulation time: 0 hr 0 min 59 sec) 
Heartbeat CPU 0 instructions: 40000002 cycles: 13536215 heartbeat IPC: 2.96395 cumulative IPC: 2.95504 (Simulation time: 0 hr 1 min 19 sec) 
Heartbeat CPU 0 instructions: 50000003 cycles: 16904914 heartbeat IPC: 2.96851 cumulative IPC: 2.95772 (Simulation time: 0 hr 1 min 39 sec) 
Heartbeat CPU 0 instructions: 60000003 cycles: 20272624 heartbeat IPC: 2.96938 cumulative IPC: 2.95966 (Simulation time: 0 hr 1 min 58 sec) 
Heartbeat CPU 0 instructions: 70000002 cycles: 23644481 heartbeat IPC: 2.96572 cumulative IPC: 2.96052 (Simulation time: 0 hr 2 min 18 sec) 
Heartbeat CPU 0 instructions: 80000000 cycles: 27017688 heartbeat IPC: 2.96454 cumulative IPC: 2.96102 (Simulation time: 0 hr 2 min 38 sec) 
Heartbeat CPU 0 instructions: 90000000 cycles: 30391485 heartbeat IPC: 2.96402 cumulative IPC: 2.96136 (Simulation time: 0 hr 2 min 58 sec) 
Heartbeat CPU 0 instructions: 100000001 cycles: 33762964 heartbeat IPC: 2.96606 cumulative IPC: 2.96183 (Simulation time: 0 hr 3 min 17 sec) 

Warmup complete CPU 0 instructions: 100000001 cycles: 33762964 (Simulation time: 0 hr 3 min 17 sec) 

Heartbeat CPU 0 instructions: 110000000 cycles: 40116257 heartbeat IPC: 1.57399 cumulative IPC: 1.57399 (Simulation time: 0 hr 3 min 30 sec) 
Heartbeat CPU 0 instructions: 120000000 cycles: 46486692 heartbeat IPC: 1.56975 cumulative IPC: 1.57187 (Simulation time: 0 hr 3 min 42 sec) 
Heartbeat CPU 0 instructions: 130000000 cycles: 52884322 heartbeat IPC: 1.56308 cumulative IPC: 1.56893 (Simulation time: 0 hr 3 min 55 sec) 
Heartbeat CPU 0 instructions: 140000003 cycles: 64083811 heartbeat IPC: 0.892898 cumulative IPC: 1.31922 (Simulation time: 0 hr 4 min 9 sec) 
Heartbeat CPU 0 instructions: 150000000 cycles: 72171937 heartbeat IPC: 1.23638 cumulative IPC: 1.30178 (Simulation time: 0 hr 4 min 22 sec) 
Heartbeat CPU 0 instructions: 160000000 cycles: 78831879 heartbeat IPC: 1.50151 cumulative IPC: 1.33129 (Simulation time: 0 hr 4 min 33 sec) 
Heartbeat CPU 0 instructions: 170000003 cycles: 85600289 heartbeat IPC: 1.47745 cumulative IPC: 1.35038 (Simulation time: 0 hr 4 min 45 sec) 
Heartbeat CPU 0 instructions: 180000000 cycles: 92199379 heartbeat IPC: 1.51536 cumulative IPC: 1.36901 (Simulation time: 0 hr 4 min 56 sec) 
Heartbeat CPU 0 instructions: 190000000 cycles: 98839224 heartbeat IPC: 1.50606 cumulative IPC: 1.38299 (Simulation time: 0 hr 5 min 7 sec) 
Heartbeat CPU 0 instructions: 200000000 cycles: 105664201 heartbeat IPC: 1.46521 cumulative IPC: 1.3908 (Simulation time: 0 hr 5 min 19 sec) 
Heartbeat CPU 0 instructions: 210000001 cycles: 112294971 heartbeat IPC: 1.50812 cumulative IPC: 1.4007 (Simulation time: 0 hr 5 min 30 sec) 
Heartbeat CPU 0 instructions: 220000000 cycles: 119009743 heartbeat IPC: 1.48925 cumulative IPC: 1.40768 (Simulation time: 0 hr 5 min 41 sec) 
Heartbeat CPU 0 instructions: 230000001 cycles: 125763988 heartbeat IPC: 1.48055 cumulative IPC: 1.41303 (Simulation time: 0 hr 5 min 53 sec) 
Heartbeat CPU 0 instructions: 240000000 cycles: 132413822 heartbeat IPC: 1.5038 cumulative IPC: 1.41915 (Simulation time: 0 hr 6 min 4 sec) 
Heartbeat CPU 0 instructions: 250000000 cycles: 139196184 heartbeat IPC: 1.47441 cumulative IPC: 1.4227 (Simulation time: 0 hr 6 min 16 sec) 
Heartbeat CPU 0 instructions: 260000000 cycles: 145858665 heartbeat IPC: 1.50094 cumulative IPC: 1.42735 (Simulation time: 0 hr 6 min 27 sec) 
Heartbeat CPU 0 instructions: 270000001 cycles: 152521688 heartbeat IPC: 1.50082 cumulative IPC: 1.43147 (Simulation time: 0 hr 6 min 38 sec) 
Heartbeat CPU 0 instructions: 280000000 cycles: 159331246 heartbeat IPC: 1.46852 cumulative IPC: 1.43348 (Simulation time: 0 hr 6 min 50 sec) 
Heartbeat CPU 0 instructions: 290000000 cycles: 165986859 heartbeat IPC: 1.50249 cumulative IPC: 1.43696 (Simulation time: 0 hr 7 min 1 sec) 
Heartbeat CPU 0 instructions: 300000001 cycles: 172615678 heartbeat IPC: 1.50856 cumulative IPC: 1.44038 (Simulation time: 0 hr 7 min 12 sec) 
Heartbeat CPU 0 instructions: 310000000 cycles: 179423854 heartbeat IPC: 1.46882 cumulative IPC: 1.4417 (Simulation time: 0 hr 7 min 24 sec) 
Heartbeat CPU 0 instructions: 320000001 cycles: 186063272 heartbeat IPC: 1.50616 cumulative IPC: 1.44451 (Simulation time: 0 hr 7 min 35 sec) 
Heartbeat CPU 0 instructions: 330000000 cycles: 192678275 heartbeat IPC: 1.51171 cumulative IPC: 1.44731 (Simulation time: 0 hr 7 min 46 sec) 
Heartbeat CPU 0 instructions: 340000000 cycles: 199288627 heartbeat IPC: 1.51278 cumulative IPC: 1.44993 (Simulation time: 0 hr 7 min 57 sec) 
Heartbeat CPU 0 instructions: 350000003 cycles: 205890145 heartbeat IPC: 1.5148 cumulative IPC: 1.45241 (Simulation time: 0 hr 8 min 8 sec) 
Heartbeat CPU 0 instructions: 360000002 cycles: 212507138 heartbeat IPC: 1.51126 cumulative IPC: 1.45459 (Simulation time: 0 hr 8 min 20 sec) 
Heartbeat CPU 0 instructions: 370000001 cycles: 219112400 heartbeat IPC: 1.51394 cumulative IPC: 1.45671 (Simulation time: 0 hr 8 min 31 sec) 
Heartbeat CPU 0 instructions: 380000001 cycles: 225742137 heartbeat IPC: 1.50836 cumulative IPC: 1.45849 (Simulation time: 0 hr 8 min 42 sec) 
Heartbeat CPU 0 instructions: 390000000 cycles: 232380855 heartbeat IPC: 1.50631 cumulative IPC: 1.46009 (Simulation time: 0 hr 8 min 53 sec) 
Heartbeat CPU 0 instructions: 400000001 cycles: 245591453 heartbeat IPC: 0.756968 cumulative IPC: 1.41624 (Simulation time: 0 hr 9 min 10 sec) 
Heartbeat CPU 0 instructions: 410000000 cycles: 252229361 heartbeat IPC: 1.5065 cumulative IPC: 1.41898 (Simulation time: 0 hr 9 min 22 sec) 
Heartbeat CPU 0 instructions: 420000002 cycles: 259411860 heartbeat IPC: 1.39227 cumulative IPC: 1.41813 (Simulation time: 0 hr 9 min 34 sec) 
Heartbeat CPU 0 instructions: 430000002 cycles: 266372950 heartbeat IPC: 1.43656 cumulative IPC: 1.41868 (Simulation time: 0 hr 9 min 47 sec) 
Heartbeat CPU 0 instructions: 440000000 cycles: 272637808 heartbeat IPC: 1.5962 cumulative IPC: 1.42334 (Simulation time: 0 hr 9 min 59 sec) 
Heartbeat CPU 0 instructions: 450000000 cycles: 278888980 heartbeat IPC: 1.5997 cumulative IPC: 1.42784 (Simulation time: 0 hr 10 min 11 sec) 
Heartbeat CPU 0 instructions: 460000003 cycles: 285209420 heartbeat IPC: 1.58217 cumulative IPC: 1.43172 (Simulation time: 0 hr 10 min 23 sec) 
Heartbeat CPU 0 instructions: 470000000 cycles: 291558380 heartbeat IPC: 1.57506 cumulative IPC: 1.43525 (Simulation time: 0 hr 10 min 35 sec) 
Heartbeat CPU 0 instructions: 480000001 cycles: 297840002 heartbeat IPC: 1.59195 cumulative IPC: 1.43897 (Simulation time: 0 hr 10 min 47 sec) 
Heartbeat CPU 0 instructions: 490000002 cycles: 304222232 heartbeat IPC: 1.56685 cumulative IPC: 1.44199 (Simulation time: 0 hr 10 min 59 sec) 
Heartbeat CPU 0 instructions: 500000001 cycles: 310526213 heartbeat IPC: 1.5863 cumulative IPC: 1.44528 (Simulation time: 0 hr 11 min 11 sec) 
Heartbeat CPU 0 instructions: 510000002 cycles: 316823907 heartbeat IPC: 1.58788 cumulative IPC: 1.44845 (Simulation time: 0 hr 11 min 23 sec) 
Heartbeat CPU 0 instructions: 520000002 cycles: 323057801 heartbeat IPC: 1.60413 cumulative IPC: 1.45181 (Simulation time: 0 hr 11 min 35 sec) 
Heartbeat CPU 0 instructions: 530000001 cycles: 329309398 heartbeat IPC: 1.59959 cumulative IPC: 1.45493 (Simulation time: 0 hr 11 min 47 sec) 
Heartbeat CPU 0 instructions: 540000002 cycles: 335631824 heartbeat IPC: 1.58167 cumulative IPC: 1.45759 (Simulation time: 0 hr 12 min 0 sec) 
Heartbeat CPU 0 instructions: 550000000 cycles: 341828175 heartbeat IPC: 1.61385 cumulative IPC: 1.46073 (Simulation time: 0 hr 12 min 12 sec) 
Heartbeat CPU 0 instructions: 560000000 cycles: 348030876 heartbeat IPC: 1.6122 cumulative IPC: 1.46372 (Simulation time: 0 hr 12 min 24 sec) 
Heartbeat CPU 0 instructions: 570000000 cycles: 361866942 heartbeat IPC: 0.722749 cumulative IPC: 1.43247 (Simulation time: 0 hr 12 min 41 sec) 
Heartbeat CPU 0 instructions: 580000002 cycles: 367963028 heartbeat IPC: 1.6404 cumulative IPC: 1.43627 (Simulation time: 0 hr 12 min 54 sec) 
Heartbeat CPU 0 instructions: 590000002 cycles: 375882131 heartbeat IPC: 1.26277 cumulative IPC: 1.43225 (Simulation time: 0 hr 13 min 7 sec) 
Heartbeat CPU 0 instructions: 600000003 cycles: 382703924 heartbeat IPC: 1.46589 cumulative IPC: 1.43291 (Simulation time: 0 hr 13 min 21 sec) 
Heartbeat CPU 0 instructions: 610000001 cycles: 389568296 heartbeat IPC: 1.4568 cumulative IPC: 1.43337 (Simulation time: 0 hr 13 min 35 sec) 
Heartbeat CPU 0 instructions: 620000002 cycles: 396395114 heartbeat IPC: 1.46481 cumulative IPC: 1.43396 (Simulation time: 0 hr 13 min 49 sec) 
Heartbeat CPU 0 instructions: 630000002 cycles: 403220115 heartbeat IPC: 1.4652 cumulative IPC: 1.43454 (Simulation time: 0 hr 14 min 3 sec) 
Heartbeat CPU 0 instructions: 640000002 cycles: 410067355 heartbeat IPC: 1.46044 cumulative IPC: 1.43501 (Simulation time: 0 hr 14 min 17 sec) 
Heartbeat CPU 0 instructions: 650000000 cycles: 416858299 heartbeat IPC: 1.47255 cumulative IPC: 1.43567 (Simulation time: 0 hr 14 min 31 sec) 
Heartbeat CPU 0 instructions: 660000000 cycles: 423617829 heartbeat IPC: 1.47939 cumulative IPC: 1.43643 (Simulation time: 0 hr 14 min 45 sec) 
Heartbeat CPU 0 instructions: 670000000 cycles: 437064251 heartbeat IPC: 0.743692 cumulative IPC: 1.41334 (Simulation time: 0 hr 15 min 3 sec) 
Heartbeat CPU 0 instructions: 680000002 cycles: 443765993 heartbeat IPC: 1.49215 cumulative IPC: 1.41462 (Simulation time: 0 hr 15 min 15 sec) 
Heartbeat CPU 0 instructions: 690000000 cycles: 451162912 heartbeat IPC: 1.35191 cumulative IPC: 1.41351 (Simulation time: 0 hr 15 min 29 sec) 
Heartbeat CPU 0 instructions: 700000001 cycles: 458022615 heartbeat IPC: 1.45779 cumulative IPC: 1.41423 (Simulation time: 0 hr 15 min 43 sec) 
Heartbeat CPU 0 instructions: 710000001 cycles: 464867488 heartbeat IPC: 1.46095 cumulative IPC: 1.41497 (Simulation time: 0 hr 15 min 57 sec) 
Heartbeat CPU 0 instructions: 720000001 cycles: 471680512 heartbeat IPC: 1.46778 cumulative IPC: 1.41579 (Simulation time: 0 hr 16 min 11 sec) 
Heartbeat CPU 0 instructions: 730000001 cycles: 478516683 heartbeat IPC: 1.46281 cumulative IPC: 1.41651 (Simulation time: 0 hr 16 min 25 sec) 
Heartbeat CPU 0 instructions: 740000000 cycles: 485325899 heartbeat IPC: 1.4686 cumulative IPC: 1.4173 (Simulation time: 0 hr 16 min 39 sec) 
Heartbeat CPU 0 instructions: 750000000 cycles: 492113756 heartbeat IPC: 1.47322 cumulative IPC: 1.41813 (Simulation time: 0 hr 16 min 53 sec) 
Heartbeat CPU 0 instructions: 760000001 cycles: 505783029 heartbeat IPC: 0.731568 cumulative IPC: 1.39825 (Simulation time: 0 hr 17 min 12 sec) 
Heartbeat CPU 0 instructions: 770000000 cycles: 512088142 heartbeat IPC: 1.58601 cumulative IPC: 1.40072 (Simulation time: 0 hr 17 min 25 sec) 
Heartbeat CPU 0 instructions: 780000001 cycles: 519588145 heartbeat IPC: 1.33333 cumulative IPC: 1.39968 (Simulation time: 0 hr 17 min 37 sec) 
Heartbeat CPU 0 instructions: 790000000 cycles: 525986481 heartbeat IPC: 1.56291 cumulative IPC: 1.4018 (Simulation time: 0 hr 17 min 51 sec) 
Heartbeat CPU 0 instructions: 800000003 cycles: 532371246 heartbeat IPC: 1.56623 cumulative IPC: 1.40391 (Simulation time: 0 hr 18 min 4 sec) 
Heartbeat CPU 0 instructions: 810000002 cycles: 538753223 heartbeat IPC: 1.56691 cumulative IPC: 1.40597 (Simulation time: 0 hr 18 min 18 sec) 
Heartbeat CPU 0 instructions: 820000003 cycles: 545133167 heartbeat IPC: 1.56741 cumulative IPC: 1.40798 (Simulation time: 0 hr 18 min 31 sec) 
Heartbeat CPU 0 instructions: 830000000 cycles: 551507414 heartbeat IPC: 1.56881 cumulative IPC: 1.40996 (Simulation time: 0 hr 18 min 44 sec) 
Heartbeat CPU 0 instructions: 840000003 cycles: 557883320 heartbeat IPC: 1.56841 cumulative IPC: 1.41189 (Simulation time: 0 hr 18 min 58 sec) 
Heartbeat CPU 0 instructions: 850000000 cycles: 564258825 heartbeat IPC: 1.5685 cumulative IPC: 1.41377 (Simulation time: 0 hr 19 min 11 sec) 
Heartbeat CPU 0 instructions: 860000001 cycles: 570623662 heartbeat IPC: 1.57113 cumulative IPC: 1.41564 (Simulation time: 0 hr 19 min 25 sec) 
Heartbeat CPU 0 instructions: 870000002 cycles: 576994595 heartbeat IPC: 1.56963 cumulative IPC: 1.41744 (Simulation time: 0 hr 19 min 38 sec) 
Heartbeat CPU 0 instructions: 880000000 cycles: 583315238 heartbeat IPC: 1.58212 cumulative IPC: 1.41934 (Simulation time: 0 hr 19 min 51 sec) 
Heartbeat CPU 0 instructions: 890000003 cycles: 589645787 heartbeat IPC: 1.57964 cumulative IPC: 1.42116 (Simulation time: 0 hr 20 min 4 sec) 
Heartbeat CPU 0 instructions: 900000002 cycles: 595969655 heartbeat IPC: 1.58131 cumulative IPC: 1.42296 (Simulation time: 0 hr 20 min 17 sec) 
Heartbeat CPU 0 instructions: 910000000 cycles: 602294162 heartbeat IPC: 1.58115 cumulative IPC: 1.42472 (Simulation time: 0 hr 20 min 31 sec) 
Heartbeat CPU 0 instructions: 920000001 cycles: 608614803 heartbeat IPC: 1.58212 cumulative IPC: 1.42645 (Simulation time: 0 hr 20 min 44 sec) 
Heartbeat CPU 0 instructions: 930000003 cycles: 614940468 heartbeat IPC: 1.58086 cumulative IPC: 1.42814 (Simulation time: 0 hr 20 min 57 sec) 
Heartbeat CPU 0 instructions: 940000000 cycles: 621263298 heartbeat IPC: 1.58157 cumulative IPC: 1.42979 (Simulation time: 0 hr 21 min 10 sec) 
Heartbeat CPU 0 instructions: 950000000 cycles: 627598143 heartbeat IPC: 1.57857 cumulative IPC: 1.43137 (Simulation time: 0 hr 21 min 23 sec) 
Heartbeat CPU 0 instructions: 960000003 cycles: 633932079 heartbeat IPC: 1.5788 cumulative IPC: 1.43293 (Simulation time: 0 hr 21 min 36 sec) 
Heartbeat CPU 0 instructions: 970000001 cycles: 640273821 heartbeat IPC: 1.57685 cumulative IPC: 1.43443 (Simulation time: 0 hr 21 min 49 sec) 
Heartbeat CPU 0 instructions: 980000001 cycles: 646617720 heartbeat IPC: 1.57632 cumulative IPC: 1.4359 (Simulation time: 0 hr 22 min 3 sec) 
Heartbeat CPU 0 instructions: 990000000 cycles: 652959069 heartbeat IPC: 1.57695 cumulative IPC: 1.43735 (Simulation time: 0 hr 22 min 16 sec) 
Heartbeat CPU 0 instructions: 1000000000 cycles: 659311922 heartbeat IPC: 1.5741 cumulative IPC: 1.43874 (Simulation time: 0 hr 22 min 29 sec) 
Heartbeat CPU 0 instructions: 1010000002 cycles: 665678122 heartbeat IPC: 1.5708 cumulative IPC: 1.44007 (Simulation time: 0 hr 22 min 42 sec) 
Heartbeat CPU 0 instructions: 1020000000 cycles: 671972565 heartbeat IPC: 1.5887 cumulative IPC: 1.44153 (Simulation time: 0 hr 22 min 56 sec) 
Heartbeat CPU 0 instructions: 1030000002 cycles: 678202633 heartbeat IPC: 1.60512 cumulative IPC: 1.44311 (Simulation time: 0 hr 23 min 10 sec) 
Heartbeat CPU 0 instructions: 1040000002 cycles: 684430781 heartbeat IPC: 1.60561 cumulative IPC: 1.44467 (Simulation time: 0 hr 23 min 24 sec) 
Heartbeat CPU 0 instructions: 1050000003 cycles: 690658213 heartbeat IPC: 1.6058 cumulative IPC: 1.4462 (Simulation time: 0 hr 23 min 39 sec) 
Heartbeat CPU 0 instructions: 1060000000 cycles: 697022013 heartbeat IPC: 1.57139 cumulative IPC: 1.4474 (Simulation time: 0 hr 23 min 52 sec) 
Heartbeat CPU 0 instructions: 1070000000 cycles: 703424448 heartbeat IPC: 1.56191 cumulative IPC: 1.44849 (Simulation time: 0 hr 24 min 5 sec) 
Heartbeat CPU 0 instructions: 1080000001 cycles: 709829313 heartbeat IPC: 1.56131 cumulative IPC: 1.44956 (Simulation time: 0 hr 24 min 18 sec) 
Heartbeat CPU 0 instructions: 1090000000 cycles: 716225106 heartbeat IPC: 1.56353 cumulative IPC: 1.45063 (Simulation time: 0 hr 24 min 31 sec) 
Heartbeat CPU 0 instructions: 1100000000 cycles: 722606166 heartbeat IPC: 1.56714 cumulative IPC: 1.45171 (Simulation time: 0 hr 24 min 44 sec) 
Finished CPU 0 instructions: 1000000000 cycles: 688843203 cumulative IPC: 1.45171 (Simulation time: 0 hr 24 min 44 sec) 

ChampSim completed all CPUs

Region of Interest Statistics

CPU 0 cumulative IPC: 1.45171 instructions: 1000000000 cycles: 688843203
L1D TOTAL     ACCESS:  185924384  HIT:  183033472  MISS:    2890912
L1D LOAD      ACCESS:  112708945  HIT:  110674375  MISS:    2034570
L1D RFO       ACCESS:   73215439  HIT:   72359097  MISS:     856342
L1D PREFETCH  ACCESS:          0  HIT:          0  MISS:          0
L1D WRITEBACK ACCESS:          0  HIT:          0  MISS:          0
L1D PREFETCH  REQUESTED:          0  ISSUED:          0  USEFUL:          0  USELESS:          0
L1D AVERAGE MISS LATENCY: 113.016 cycles
L1I TOTAL     ACCESS:  159618306  HIT:  157501444  MISS:    2116862
L1I LOAD      ACCESS:  159618306  HIT:  157501444  MISS:    2116862
L1I RFO       ACCESS:          0  HIT:          0  MISS:          0
L1I PREFETCH  ACCESS:          0  HIT:          0  MISS:          0
L1I WRITEBACK ACCESS:          0  HIT:          0  MISS:          0
L1I PREFETCH  REQUESTED:          0  ISSUED:          0  USEFUL:          0  USELESS:          0
L1I AVERAGE MISS LATENCY: 14.2696 cycles
L2C TOTAL     ACCESS:    6010073  HIT:    4574777  MISS:    1435296
L2C LOAD      ACCESS:    4151366  HIT:    3149612  MISS:    1001754
L2C RFO       ACCESS:     853942  HIT:     425418  MISS:     428524
L2C PREFETCH  ACCESS:          0  HIT:          0  MISS:          0
L2C WRITEBACK ACCESS:    1004765  HIT:     999747  MISS:       5018
L2C PREFETCH  REQUESTED:          0  ISSUED:          0  USEFUL:          0  USELESS:          0
L2C AVERAGE MISS LATENCY: 205.815 cycles
LLC TOTAL     ACCESS:    1954100  HIT:     823426  MISS:    1130674
LLC LOAD      ACCESS:    1001753  HIT:     287963  MISS:     713790
LLC RFO       ACCESS:     428520  HIT:      12471  MISS:     416049
LLC PREFETCH  ACCESS:          0  HIT:          0  MISS:          0
LLC WRITEBACK ACCESS:     523827  HIT:     522992  MISS:        835
LLC PREFETCH  REQUESTED:          0  ISSUED:          0  USEFUL:          0  USELESS:          0
LLC AVERAGE MISS LATENCY: 209.849 cycles
Major fault: 0 Minor fault: 9674

DRAM Statistics
 CHANNEL 0
 RQ ROW_BUFFER_HIT:     283638  ROW_BUFFER_MISS:     846175
 DBUS_CONGESTED:     488093
 WQ ROW_BUFFER_HIT:     175556  ROW_BUFFER_MISS:     322964  FULL:          0

 AVG_CONGESTED_CYCLE: 6

CPU 0 Branch Prediction Accuracy: 92.2102% MPKI: 3.05576 Average ROB Occupancy at Mispredict: 44.7555

Branch types
NOT_BRANCH: 960772106 96.0772%
BRANCH_DIRECT_JUMP: 1534501 0.15345%
BRANCH_INDIRECT: 58107 0.0058107%
BRANCH_CONDITIONAL: 31962300 3.19623%
BRANCH_DIRECT_CALL: 1481511 0.148151%
BRANCH_INDIRECT_CALL: 1354833 0.135483%
BRANCH_RETURN: 2836344 0.283634%
BRANCH_OTHER: 0 0%

