
*** ChampSim Multicore Out-of-Order Simulator ***

Warmup Instructions: 100000000
Simulation Instructions: 1000000000
Number of CPUs: 1
LLC sets: 2048
LLC ways: 16
Off-chip DRAM Size: 4096 MB Channels: 1 Width: 64-bit Data Rate: 3200 MT/s

CPU 0 runs /scratch/user/kevin.weston/dpc3-traces/625.champsimtrace.xz
CPU 0 Bimodal branch predictor
Initialize SHIP state
Assign rand_sets[0]: 454  LLC: 2048
rand_sets[0]: 454
Assign rand_sets[1]: 1662  LLC: 2048
rand_sets[1]: 1662
Assign rand_sets[2]: 1921  LLC: 2048
rand_sets[2]: 1921
Assign rand_sets[3]: 1131  LLC: 2048
rand_sets[3]: 1131
Assign rand_sets[4]: 331  LLC: 2048
rand_sets[4]: 331
Assign rand_sets[5]: 1531  LLC: 2048
rand_sets[5]: 1531
Assign rand_sets[6]: 482  LLC: 2048
rand_sets[6]: 482
Assign rand_sets[7]: 1275  LLC: 2048
rand_sets[7]: 1275
Assign rand_sets[8]: 1876  LLC: 2048
rand_sets[8]: 1876
Assign rand_sets[9]: 2038  LLC: 2048
rand_sets[9]: 2038
Assign rand_sets[10]: 701  LLC: 2048
rand_sets[10]: 701
Assign rand_sets[11]: 479  LLC: 2048
rand_sets[11]: 479
Assign rand_sets[12]: 892  LLC: 2048
rand_sets[12]: 892
Assign rand_sets[13]: 1820  LLC: 2048
rand_sets[13]: 1820
Assign rand_sets[14]: 1505  LLC: 2048
rand_sets[14]: 1505
Assign rand_sets[15]: 1159  LLC: 2048
rand_sets[15]: 1159
Assign rand_sets[16]: 513  LLC: 2048
rand_sets[16]: 513
Assign rand_sets[17]: 703  LLC: 2048
rand_sets[17]: 703
Assign rand_sets[18]: 561  LLC: 2048
rand_sets[18]: 561
Assign rand_sets[19]: 990  LLC: 2048
rand_sets[19]: 990
Assign rand_sets[20]: 342  LLC: 2048
rand_sets[20]: 342
Assign rand_sets[21]: 882  LLC: 2048
rand_sets[21]: 882
Assign rand_sets[22]: 15  LLC: 2048
rand_sets[22]: 15
Assign rand_sets[23]: 71  LLC: 2048
rand_sets[23]: 71
Assign rand_sets[24]: 1127  LLC: 2048
rand_sets[24]: 1127
Assign rand_sets[25]: 1382  LLC: 2048
rand_sets[25]: 1382
Assign rand_sets[26]: 647  LLC: 2048
rand_sets[26]: 647
Assign rand_sets[27]: 857  LLC: 2048
rand_sets[27]: 857
Assign rand_sets[28]: 1450  LLC: 2048
rand_sets[28]: 1450
Assign rand_sets[29]: 1160  LLC: 2048
rand_sets[29]: 1160
Assign rand_sets[30]: 1852  LLC: 2048
rand_sets[30]: 1852
Assign rand_sets[31]: 1881  LLC: 2048
rand_sets[31]: 1881
Assign rand_sets[32]: 1770  LLC: 2048
rand_sets[32]: 1770
Assign rand_sets[33]: 1622  LLC: 2048
rand_sets[33]: 1622
Assign rand_sets[34]: 275  LLC: 2048
rand_sets[34]: 275
Assign rand_sets[35]: 635  LLC: 2048
rand_sets[35]: 635
Assign rand_sets[36]: 466  LLC: 2048
rand_sets[36]: 466
Assign rand_sets[37]: 1413  LLC: 2048
rand_sets[37]: 1413
Assign rand_sets[38]: 417  LLC: 2048
rand_sets[38]: 417
Assign rand_sets[39]: 472  LLC: 2048
rand_sets[39]: 472
Assign rand_sets[40]: 1340  LLC: 2048
rand_sets[40]: 1340
Assign rand_sets[41]: 852  LLC: 2048
rand_sets[41]: 852
Assign rand_sets[42]: 1365  LLC: 2048
rand_sets[42]: 1365
Assign rand_sets[43]: 47  LLC: 2048
rand_sets[43]: 47
Assign rand_sets[44]: 823  LLC: 2048
rand_sets[44]: 823
Assign rand_sets[45]: 686  LLC: 2048
rand_sets[45]: 686
Assign rand_sets[46]: 1637  LLC: 2048
rand_sets[46]: 1637
Assign rand_sets[47]: 1115  LLC: 2048
rand_sets[47]: 1115
Assign rand_sets[48]: 986  LLC: 2048
rand_sets[48]: 986
Assign rand_sets[49]: 258  LLC: 2048
rand_sets[49]: 258
Assign rand_sets[50]: 633  LLC: 2048
rand_sets[50]: 633
Assign rand_sets[51]: 920  LLC: 2048
rand_sets[51]: 920
Assign rand_sets[52]: 204  LLC: 2048
rand_sets[52]: 204
Assign rand_sets[53]: 227  LLC: 2048
rand_sets[53]: 227
Assign rand_sets[54]: 1818  LLC: 2048
rand_sets[54]: 1818
Assign rand_sets[55]: 886  LLC: 2048
rand_sets[55]: 886
Assign rand_sets[56]: 1422  LLC: 2048
rand_sets[56]: 1422
Assign rand_sets[57]: 607  LLC: 2048
rand_sets[57]: 607
Assign rand_sets[58]: 217  LLC: 2048
rand_sets[58]: 217
Assign rand_sets[59]: 1945  LLC: 2048
rand_sets[59]: 1945
Assign rand_sets[60]: 143  LLC: 2048
rand_sets[60]: 143
Assign rand_sets[61]: 1311  LLC: 2048
rand_sets[61]: 1311
Assign rand_sets[62]: 319  LLC: 2048
rand_sets[62]: 319
Assign rand_sets[63]: 1846  LLC: 2048
rand_sets[63]: 1846
Assign rand_sets[64]: 238  LLC: 2048
rand_sets[64]: 238
Assign rand_sets[65]: 67  LLC: 2048
rand_sets[65]: 67
Assign rand_sets[66]: 1912  LLC: 2048
rand_sets[66]: 1912
Assign rand_sets[67]: 1613  LLC: 2048
rand_sets[67]: 1613
Assign rand_sets[68]: 1293  LLC: 2048
rand_sets[68]: 1293
Assign rand_sets[69]: 1018  LLC: 2048
rand_sets[69]: 1018
Assign rand_sets[70]: 1982  LLC: 2048
rand_sets[70]: 1982
Assign rand_sets[71]: 1702  LLC: 2048
rand_sets[71]: 1702
Assign rand_sets[72]: 1498  LLC: 2048
rand_sets[72]: 1498
Assign rand_sets[73]: 228  LLC: 2048
rand_sets[73]: 228
Assign rand_sets[74]: 1414  LLC: 2048
rand_sets[74]: 1414
Assign rand_sets[75]: 1166  LLC: 2048
rand_sets[75]: 1166
Assign rand_sets[76]: 732  LLC: 2048
rand_sets[76]: 732
Assign rand_sets[77]: 297  LLC: 2048
rand_sets[77]: 297
Assign rand_sets[78]: 1133  LLC: 2048
rand_sets[78]: 1133
Assign rand_sets[79]: 846  LLC: 2048
rand_sets[79]: 846
Assign rand_sets[80]: 767  LLC: 2048
rand_sets[80]: 767
Assign rand_sets[81]: 1878  LLC: 2048
rand_sets[81]: 1878
Assign rand_sets[82]: 993  LLC: 2048
rand_sets[82]: 993
Assign rand_sets[83]: 1392  LLC: 2048
rand_sets[83]: 1392
Assign rand_sets[84]: 1568  LLC: 2048
rand_sets[84]: 1568
Assign rand_sets[85]: 1787  LLC: 2048
rand_sets[85]: 1787
Assign rand_sets[86]: 399  LLC: 2048
rand_sets[86]: 399
Assign rand_sets[87]: 1201  LLC: 2048
rand_sets[87]: 1201
Assign rand_sets[88]: 856  LLC: 2048
rand_sets[88]: 856
Assign rand_sets[89]: 773  LLC: 2048
rand_sets[89]: 773
Assign rand_sets[90]: 1680  LLC: 2048
rand_sets[90]: 1680
Assign rand_sets[91]: 1477  LLC: 2048
rand_sets[91]: 1477
Assign rand_sets[92]: 9  LLC: 2048
rand_sets[92]: 9
Assign rand_sets[93]: 1500  LLC: 2048
rand_sets[93]: 1500
Assign rand_sets[94]: 851  LLC: 2048
rand_sets[94]: 851
Assign rand_sets[95]: 973  LLC: 2048
rand_sets[95]: 973
Assign rand_sets[96]: 938  LLC: 2048
rand_sets[96]: 938
Assign rand_sets[97]: 1851  LLC: 2048
rand_sets[97]: 1851
Assign rand_sets[98]: 1608  LLC: 2048
rand_sets[98]: 1608
Assign rand_sets[99]: 1945  LLC: 2048
Assign rand_sets[99]: 1106  LLC: 2048
rand_sets[99]: 1106
Assign rand_sets[100]: 979  LLC: 2048
rand_sets[100]: 979
Assign rand_sets[101]: 338  LLC: 2048
rand_sets[101]: 338
Assign rand_sets[102]: 1693  LLC: 2048
rand_sets[102]: 1693
Assign rand_sets[103]: 6  LLC: 2048
rand_sets[103]: 6
Assign rand_sets[104]: 671  LLC: 2048
rand_sets[104]: 671
Assign rand_sets[105]: 490  LLC: 2048
rand_sets[105]: 490
Assign rand_sets[106]: 1461  LLC: 2048
rand_sets[106]: 1461
Assign rand_sets[107]: 1730  LLC: 2048
rand_sets[107]: 1730
Assign rand_sets[108]: 1030  LLC: 2048
rand_sets[108]: 1030
Assign rand_sets[109]: 19  LLC: 2048
rand_sets[109]: 19
Assign rand_sets[110]: 920  LLC: 2048
Assign rand_sets[110]: 329  LLC: 2048
rand_sets[110]: 329
Assign rand_sets[111]: 1714  LLC: 2048
rand_sets[111]: 1714
Assign rand_sets[112]: 1  LLC: 2048
rand_sets[112]: 1
Assign rand_sets[113]: 1822  LLC: 2048
rand_sets[113]: 1822
Assign rand_sets[114]: 172  LLC: 2048
rand_sets[114]: 172
Assign rand_sets[115]: 1586  LLC: 2048
rand_sets[115]: 1586
Assign rand_sets[116]: 648  LLC: 2048
rand_sets[116]: 648
Assign rand_sets[117]: 1329  LLC: 2048
rand_sets[117]: 1329
Assign rand_sets[118]: 668  LLC: 2048
rand_sets[118]: 668
Assign rand_sets[119]: 1874  LLC: 2048
rand_sets[119]: 1874
Assign rand_sets[120]: 70  LLC: 2048
rand_sets[120]: 70
Assign rand_sets[121]: 661  LLC: 2048
rand_sets[121]: 661
Assign rand_sets[122]: 1649  LLC: 2048
rand_sets[122]: 1649
Assign rand_sets[123]: 1590  LLC: 2048
rand_sets[123]: 1590
Assign rand_sets[124]: 911  LLC: 2048
rand_sets[124]: 911
Assign rand_sets[125]: 1367  LLC: 2048
rand_sets[125]: 1367
Assign rand_sets[126]: 1782  LLC: 2048
rand_sets[126]: 1782
Assign rand_sets[127]: 569  LLC: 2048
rand_sets[127]: 569
Heartbeat CPU 0 instructions: 10000001 cycles: 3383272 heartbeat IPC: 2.95572 cumulative IPC: 2.95572 (Simulation time: 0 hr 0 min 20 sec) 
Heartbeat CPU 0 instructions: 20000000 cycles: 6780092 heartbeat IPC: 2.94393 cumulative IPC: 2.94981 (Simulation time: 0 hr 0 min 40 sec) 
Heartbeat CPU 0 instructions: 30000000 cycles: 10162343 heartbeat IPC: 2.95661 cumulative IPC: 2.95208 (Simulation time: 0 hr 1 min 0 sec) 
Heartbeat CPU 0 instructions: 40000002 cycles: 13536215 heartbeat IPC: 2.96395 cumulative IPC: 2.95504 (Simulation time: 0 hr 1 min 20 sec) 
Heartbeat CPU 0 instructions: 50000003 cycles: 16904914 heartbeat IPC: 2.96851 cumulative IPC: 2.95772 (Simulation time: 0 hr 1 min 39 sec) 
Heartbeat CPU 0 instructions: 60000003 cycles: 20272624 heartbeat IPC: 2.96938 cumulative IPC: 2.95966 (Simulation time: 0 hr 1 min 58 sec) 
Heartbeat CPU 0 instructions: 70000002 cycles: 23644481 heartbeat IPC: 2.96572 cumulative IPC: 2.96052 (Simulation time: 0 hr 2 min 18 sec) 
Heartbeat CPU 0 instructions: 80000000 cycles: 27017688 heartbeat IPC: 2.96454 cumulative IPC: 2.96102 (Simulation time: 0 hr 2 min 37 sec) 
Heartbeat CPU 0 instructions: 90000000 cycles: 30391485 heartbeat IPC: 2.96402 cumulative IPC: 2.96136 (Simulation time: 0 hr 2 min 57 sec) 
Heartbeat CPU 0 instructions: 100000001 cycles: 33762969 heartbeat IPC: 2.96605 cumulative IPC: 2.96182 (Simulation time: 0 hr 3 min 16 sec) 

Warmup complete CPU 0 instructions: 100000001 cycles: 33762969 (Simulation time: 0 hr 3 min 16 sec) 

Heartbeat CPU 0 instructions: 110000000 cycles: 40108873 heartbeat IPC: 1.57582 cumulative IPC: 1.57582 (Simulation time: 0 hr 3 min 28 sec) 
Heartbeat CPU 0 instructions: 120000000 cycles: 46465278 heartbeat IPC: 1.57322 cumulative IPC: 1.57452 (Simulation time: 0 hr 3 min 41 sec) 
Heartbeat CPU 0 instructions: 130000000 cycles: 52857958 heartbeat IPC: 1.56429 cumulative IPC: 1.57109 (Simulation time: 0 hr 3 min 54 sec) 
Heartbeat CPU 0 instructions: 140000003 cycles: 64128204 heartbeat IPC: 0.887292 cumulative IPC: 1.3173 (Simulation time: 0 hr 4 min 8 sec) 
Heartbeat CPU 0 instructions: 150000000 cycles: 72164439 heartbeat IPC: 1.24436 cumulative IPC: 1.30203 (Simulation time: 0 hr 4 min 21 sec) 
Heartbeat CPU 0 instructions: 160000000 cycles: 78829137 heartbeat IPC: 1.50044 cumulative IPC: 1.33138 (Simulation time: 0 hr 4 min 32 sec) 
Heartbeat CPU 0 instructions: 170000003 cycles: 85609110 heartbeat IPC: 1.47493 cumulative IPC: 1.35015 (Simulation time: 0 hr 4 min 44 sec) 
Heartbeat CPU 0 instructions: 180000000 cycles: 92215652 heartbeat IPC: 1.51365 cumulative IPC: 1.36863 (Simulation time: 0 hr 4 min 55 sec) 
Heartbeat CPU 0 instructions: 190000000 cycles: 98865435 heartbeat IPC: 1.50381 cumulative IPC: 1.38244 (Simulation time: 0 hr 5 min 6 sec) 
Heartbeat CPU 0 instructions: 200000000 cycles: 105694422 heartbeat IPC: 1.46435 cumulative IPC: 1.39021 (Simulation time: 0 hr 5 min 18 sec) 
Heartbeat CPU 0 instructions: 210000001 cycles: 112325621 heartbeat IPC: 1.50802 cumulative IPC: 1.40016 (Simulation time: 0 hr 5 min 29 sec) 
Heartbeat CPU 0 instructions: 220000000 cycles: 119049177 heartbeat IPC: 1.48731 cumulative IPC: 1.40703 (Simulation time: 0 hr 5 min 40 sec) 
Heartbeat CPU 0 instructions: 230000001 cycles: 125809240 heartbeat IPC: 1.47928 cumulative IPC: 1.41233 (Simulation time: 0 hr 5 min 52 sec) 
Heartbeat CPU 0 instructions: 240000000 cycles: 132471069 heartbeat IPC: 1.50109 cumulative IPC: 1.41832 (Simulation time: 0 hr 6 min 3 sec) 
Heartbeat CPU 0 instructions: 250000000 cycles: 139271464 heartbeat IPC: 1.4705 cumulative IPC: 1.42169 (Simulation time: 0 hr 6 min 15 sec) 
Heartbeat CPU 0 instructions: 260000000 cycles: 145946810 heartbeat IPC: 1.49805 cumulative IPC: 1.42623 (Simulation time: 0 hr 6 min 26 sec) 
Heartbeat CPU 0 instructions: 270000001 cycles: 152622446 heartbeat IPC: 1.49798 cumulative IPC: 1.43026 (Simulation time: 0 hr 6 min 37 sec) 
Heartbeat CPU 0 instructions: 280000000 cycles: 159441561 heartbeat IPC: 1.46647 cumulative IPC: 1.43222 (Simulation time: 0 hr 6 min 49 sec) 
Heartbeat CPU 0 instructions: 290000000 cycles: 166113569 heartbeat IPC: 1.4988 cumulative IPC: 1.43558 (Simulation time: 0 hr 7 min 0 sec) 
Heartbeat CPU 0 instructions: 300000001 cycles: 172745438 heartbeat IPC: 1.50787 cumulative IPC: 1.43903 (Simulation time: 0 hr 7 min 11 sec) 
Heartbeat CPU 0 instructions: 310000000 cycles: 179574083 heartbeat IPC: 1.46442 cumulative IPC: 1.44022 (Simulation time: 0 hr 7 min 23 sec) 
Heartbeat CPU 0 instructions: 320000001 cycles: 186220065 heartbeat IPC: 1.50467 cumulative IPC: 1.44303 (Simulation time: 0 hr 7 min 35 sec) 
Heartbeat CPU 0 instructions: 330000000 cycles: 192840953 heartbeat IPC: 1.51037 cumulative IPC: 1.44583 (Simulation time: 0 hr 7 min 46 sec) 
Heartbeat CPU 0 instructions: 340000000 cycles: 199452040 heartbeat IPC: 1.51261 cumulative IPC: 1.4485 (Simulation time: 0 hr 7 min 57 sec) 
Heartbeat CPU 0 instructions: 350000003 cycles: 206065184 heartbeat IPC: 1.51214 cumulative IPC: 1.45094 (Simulation time: 0 hr 8 min 9 sec) 
Heartbeat CPU 0 instructions: 360000002 cycles: 212685855 heartbeat IPC: 1.51042 cumulative IPC: 1.45314 (Simulation time: 0 hr 8 min 20 sec) 
Heartbeat CPU 0 instructions: 370000001 cycles: 219294953 heartbeat IPC: 1.51307 cumulative IPC: 1.45527 (Simulation time: 0 hr 8 min 32 sec) 
Heartbeat CPU 0 instructions: 380000001 cycles: 225927593 heartbeat IPC: 1.5077 cumulative IPC: 1.45708 (Simulation time: 0 hr 8 min 43 sec) 
Heartbeat CPU 0 instructions: 390000000 cycles: 232569327 heartbeat IPC: 1.50563 cumulative IPC: 1.45871 (Simulation time: 0 hr 8 min 55 sec) 
Heartbeat CPU 0 instructions: 400000001 cycles: 245168559 heartbeat IPC: 0.793699 cumulative IPC: 1.41907 (Simulation time: 0 hr 9 min 11 sec) 
Heartbeat CPU 0 instructions: 410000000 cycles: 251547339 heartbeat IPC: 1.5677 cumulative IPC: 1.42343 (Simulation time: 0 hr 9 min 24 sec) 
Heartbeat CPU 0 instructions: 420000002 cycles: 258513799 heartbeat IPC: 1.43545 cumulative IPC: 1.4238 (Simulation time: 0 hr 9 min 37 sec) 
Heartbeat CPU 0 instructions: 430000002 cycles: 265467142 heartbeat IPC: 1.43816 cumulative IPC: 1.42423 (Simulation time: 0 hr 9 min 49 sec) 
Heartbeat CPU 0 instructions: 440000000 cycles: 271786338 heartbeat IPC: 1.58248 cumulative IPC: 1.42843 (Simulation time: 0 hr 10 min 1 sec) 
Heartbeat CPU 0 instructions: 450000000 cycles: 278044213 heartbeat IPC: 1.59799 cumulative IPC: 1.43277 (Simulation time: 0 hr 10 min 13 sec) 
Heartbeat CPU 0 instructions: 460000003 cycles: 284387056 heartbeat IPC: 1.57658 cumulative IPC: 1.43641 (Simulation time: 0 hr 10 min 25 sec) 
Heartbeat CPU 0 instructions: 470000000 cycles: 290733142 heartbeat IPC: 1.57577 cumulative IPC: 1.43986 (Simulation time: 0 hr 10 min 38 sec) 
Heartbeat CPU 0 instructions: 480000001 cycles: 297031082 heartbeat IPC: 1.58782 cumulative IPC: 1.4434 (Simulation time: 0 hr 10 min 50 sec) 
Heartbeat CPU 0 instructions: 490000002 cycles: 303422522 heartbeat IPC: 1.56459 cumulative IPC: 1.44627 (Simulation time: 0 hr 11 min 2 sec) 
Heartbeat CPU 0 instructions: 500000001 cycles: 309771872 heartbeat IPC: 1.57496 cumulative IPC: 1.44923 (Simulation time: 0 hr 11 min 14 sec) 
Heartbeat CPU 0 instructions: 510000002 cycles: 316082395 heartbeat IPC: 1.58465 cumulative IPC: 1.45226 (Simulation time: 0 hr 11 min 26 sec) 
Heartbeat CPU 0 instructions: 520000002 cycles: 322320882 heartbeat IPC: 1.60295 cumulative IPC: 1.45551 (Simulation time: 0 hr 11 min 38 sec) 
Heartbeat CPU 0 instructions: 530000001 cycles: 328580790 heartbeat IPC: 1.59747 cumulative IPC: 1.45853 (Simulation time: 0 hr 11 min 51 sec) 
Heartbeat CPU 0 instructions: 540000002 cycles: 334885823 heartbeat IPC: 1.58603 cumulative IPC: 1.4612 (Simulation time: 0 hr 12 min 3 sec) 
Heartbeat CPU 0 instructions: 550000000 cycles: 341084317 heartbeat IPC: 1.61329 cumulative IPC: 1.46427 (Simulation time: 0 hr 12 min 15 sec) 
Heartbeat CPU 0 instructions: 560000000 cycles: 347289121 heartbeat IPC: 1.61165 cumulative IPC: 1.46718 (Simulation time: 0 hr 12 min 27 sec) 
Heartbeat CPU 0 instructions: 570000001 cycles: 359480099 heartbeat IPC: 0.820279 cumulative IPC: 1.44297 (Simulation time: 0 hr 12 min 44 sec) 
Heartbeat CPU 0 instructions: 580000002 cycles: 365669053 heartbeat IPC: 1.61578 cumulative IPC: 1.44619 (Simulation time: 0 hr 12 min 58 sec) 
Heartbeat CPU 0 instructions: 590000002 cycles: 373168485 heartbeat IPC: 1.33343 cumulative IPC: 1.4437 (Simulation time: 0 hr 13 min 12 sec) 
Heartbeat CPU 0 instructions: 600000003 cycles: 380002207 heartbeat IPC: 1.46333 cumulative IPC: 1.44409 (Simulation time: 0 hr 13 min 26 sec) 
Heartbeat CPU 0 instructions: 610000001 cycles: 386884470 heartbeat IPC: 1.45301 cumulative IPC: 1.44426 (Simulation time: 0 hr 13 min 40 sec) 
Heartbeat CPU 0 instructions: 620000002 cycles: 393725784 heartbeat IPC: 1.46171 cumulative IPC: 1.44459 (Simulation time: 0 hr 13 min 54 sec) 
Heartbeat CPU 0 instructions: 630000002 cycles: 400564865 heartbeat IPC: 1.46218 cumulative IPC: 1.44492 (Simulation time: 0 hr 14 min 8 sec) 
Heartbeat CPU 0 instructions: 640000002 cycles: 407419351 heartbeat IPC: 1.4589 cumulative IPC: 1.44518 (Simulation time: 0 hr 14 min 22 sec) 
Heartbeat CPU 0 instructions: 650000000 cycles: 414214391 heartbeat IPC: 1.47166 cumulative IPC: 1.44565 (Simulation time: 0 hr 14 min 36 sec) 
Heartbeat CPU 0 instructions: 660000000 cycles: 420973951 heartbeat IPC: 1.47939 cumulative IPC: 1.44624 (Simulation time: 0 hr 14 min 50 sec) 
Heartbeat CPU 0 instructions: 670000000 cycles: 432533187 heartbeat IPC: 0.865109 cumulative IPC: 1.42939 (Simulation time: 0 hr 15 min 9 sec) 
Heartbeat CPU 0 instructions: 680000002 cycles: 439412385 heartbeat IPC: 1.45366 cumulative IPC: 1.42981 (Simulation time: 0 hr 15 min 23 sec) 
Heartbeat CPU 0 instructions: 690000000 cycles: 446584401 heartbeat IPC: 1.39431 cumulative IPC: 1.42919 (Simulation time: 0 hr 15 min 37 sec) 
Heartbeat CPU 0 instructions: 700000001 cycles: 453455053 heartbeat IPC: 1.45547 cumulative IPC: 1.42962 (Simulation time: 0 hr 15 min 51 sec) 
Heartbeat CPU 0 instructions: 710000001 cycles: 460314431 heartbeat IPC: 1.45786 cumulative IPC: 1.43007 (Simulation time: 0 hr 16 min 5 sec) 
Heartbeat CPU 0 instructions: 720000001 cycles: 467135614 heartbeat IPC: 1.46602 cumulative IPC: 1.43064 (Simulation time: 0 hr 16 min 19 sec) 
Heartbeat CPU 0 instructions: 730000001 cycles: 473984534 heartbeat IPC: 1.46008 cumulative IPC: 1.4311 (Simulation time: 0 hr 16 min 34 sec) 
Heartbeat CPU 0 instructions: 740000000 cycles: 480797393 heartbeat IPC: 1.46781 cumulative IPC: 1.43166 (Simulation time: 0 hr 16 min 48 sec) 
Heartbeat CPU 0 instructions: 750000000 cycles: 487584866 heartbeat IPC: 1.4733 cumulative IPC: 1.43228 (Simulation time: 0 hr 17 min 2 sec) 
Heartbeat CPU 0 instructions: 760000001 cycles: 499699405 heartbeat IPC: 0.825455 cumulative IPC: 1.4165 (Simulation time: 0 hr 17 min 20 sec) 
Heartbeat CPU 0 instructions: 770000000 cycles: 505871014 heartbeat IPC: 1.62032 cumulative IPC: 1.41917 (Simulation time: 0 hr 17 min 34 sec) 
Heartbeat CPU 0 instructions: 780000001 cycles: 513178338 heartbeat IPC: 1.36849 cumulative IPC: 1.41839 (Simulation time: 0 hr 17 min 47 sec) 
Heartbeat CPU 0 instructions: 790000000 cycles: 519564738 heartbeat IPC: 1.56583 cumulative IPC: 1.42033 (Simulation time: 0 hr 18 min 1 sec) 
Heartbeat CPU 0 instructions: 800000003 cycles: 525936744 heartbeat IPC: 1.56937 cumulative IPC: 1.42226 (Simulation time: 0 hr 18 min 14 sec) 
Heartbeat CPU 0 instructions: 810000002 cycles: 532304736 heartbeat IPC: 1.57035 cumulative IPC: 1.42415 (Simulation time: 0 hr 18 min 28 sec) 
Heartbeat CPU 0 instructions: 820000003 cycles: 538664465 heartbeat IPC: 1.57239 cumulative IPC: 1.42602 (Simulation time: 0 hr 18 min 41 sec) 
Heartbeat CPU 0 instructions: 830000000 cycles: 545029617 heartbeat IPC: 1.57105 cumulative IPC: 1.42783 (Simulation time: 0 hr 18 min 54 sec) 
Heartbeat CPU 0 instructions: 840000003 cycles: 551402738 heartbeat IPC: 1.56909 cumulative IPC: 1.42957 (Simulation time: 0 hr 19 min 8 sec) 
Heartbeat CPU 0 instructions: 850000000 cycles: 557776644 heartbeat IPC: 1.5689 cumulative IPC: 1.43126 (Simulation time: 0 hr 19 min 21 sec) 
Heartbeat CPU 0 instructions: 860000001 cycles: 564133432 heartbeat IPC: 1.57312 cumulative IPC: 1.43296 (Simulation time: 0 hr 19 min 35 sec) 
Heartbeat CPU 0 instructions: 870000002 cycles: 570509110 heartbeat IPC: 1.56846 cumulative IPC: 1.43457 (Simulation time: 0 hr 19 min 48 sec) 
Heartbeat CPU 0 instructions: 880000000 cycles: 576904910 heartbeat IPC: 1.56353 cumulative IPC: 1.43609 (Simulation time: 0 hr 20 min 3 sec) 
Heartbeat CPU 0 instructions: 890000003 cycles: 583313719 heartbeat IPC: 1.56035 cumulative IPC: 1.43754 (Simulation time: 0 hr 20 min 17 sec) 
Heartbeat CPU 0 instructions: 900000002 cycles: 589721734 heartbeat IPC: 1.56055 cumulative IPC: 1.43896 (Simulation time: 0 hr 20 min 31 sec) 
Heartbeat CPU 0 instructions: 910000000 cycles: 596130297 heartbeat IPC: 1.56041 cumulative IPC: 1.44034 (Simulation time: 0 hr 20 min 45 sec) 
Heartbeat CPU 0 instructions: 920000001 cycles: 602533193 heartbeat IPC: 1.56179 cumulative IPC: 1.44171 (Simulation time: 0 hr 20 min 59 sec) 
Heartbeat CPU 0 instructions: 930000003 cycles: 608942516 heartbeat IPC: 1.56023 cumulative IPC: 1.44303 (Simulation time: 0 hr 21 min 12 sec) 
Heartbeat CPU 0 instructions: 940000000 cycles: 615346409 heartbeat IPC: 1.56155 cumulative IPC: 1.44433 (Simulation time: 0 hr 21 min 26 sec) 
Heartbeat CPU 0 instructions: 950000000 cycles: 621756192 heartbeat IPC: 1.56012 cumulative IPC: 1.44559 (Simulation time: 0 hr 21 min 39 sec) 
Heartbeat CPU 0 instructions: 960000003 cycles: 628166638 heartbeat IPC: 1.55995 cumulative IPC: 1.44683 (Simulation time: 0 hr 21 min 52 sec) 
Heartbeat CPU 0 instructions: 970000001 cycles: 634576046 heartbeat IPC: 1.56021 cumulative IPC: 1.44804 (Simulation time: 0 hr 22 min 5 sec) 
Heartbeat CPU 0 instructions: 980000001 cycles: 640986102 heartbeat IPC: 1.56005 cumulative IPC: 1.44922 (Simulation time: 0 hr 22 min 19 sec) 
Heartbeat CPU 0 instructions: 990000000 cycles: 647385212 heartbeat IPC: 1.56272 cumulative IPC: 1.4504 (Simulation time: 0 hr 22 min 32 sec) 
Heartbeat CPU 0 instructions: 1000000000 cycles: 653789229 heartbeat IPC: 1.56152 cumulative IPC: 1.45155 (Simulation time: 0 hr 22 min 45 sec) 
Heartbeat CPU 0 instructions: 1010000002 cycles: 660191106 heartbeat IPC: 1.56204 cumulative IPC: 1.45268 (Simulation time: 0 hr 22 min 59 sec) 
Heartbeat CPU 0 instructions: 1020000000 cycles: 666513282 heartbeat IPC: 1.58173 cumulative IPC: 1.45397 (Simulation time: 0 hr 23 min 13 sec) 
Heartbeat CPU 0 instructions: 1030000002 cycles: 672776854 heartbeat IPC: 1.59653 cumulative IPC: 1.45537 (Simulation time: 0 hr 23 min 27 sec) 
Heartbeat CPU 0 instructions: 1040000002 cycles: 679027889 heartbeat IPC: 1.59974 cumulative IPC: 1.45677 (Simulation time: 0 hr 23 min 41 sec) 
Heartbeat CPU 0 instructions: 1050000003 cycles: 685271895 heartbeat IPC: 1.60154 cumulative IPC: 1.45815 (Simulation time: 0 hr 23 min 56 sec) 
Heartbeat CPU 0 instructions: 1060000000 cycles: 691651802 heartbeat IPC: 1.56742 cumulative IPC: 1.45921 (Simulation time: 0 hr 24 min 9 sec) 
Heartbeat CPU 0 instructions: 1070000000 cycles: 698088389 heartbeat IPC: 1.55362 cumulative IPC: 1.46013 (Simulation time: 0 hr 24 min 22 sec) 
Heartbeat CPU 0 instructions: 1080000001 cycles: 704477233 heartbeat IPC: 1.56523 cumulative IPC: 1.46113 (Simulation time: 0 hr 24 min 36 sec) 
Heartbeat CPU 0 instructions: 1090000000 cycles: 710855139 heartbeat IPC: 1.56791 cumulative IPC: 1.46213 (Simulation time: 0 hr 24 min 49 sec) 
Heartbeat CPU 0 instructions: 1100000000 cycles: 717227823 heartbeat IPC: 1.5692 cumulative IPC: 1.46313 (Simulation time: 0 hr 25 min 2 sec) 
Finished CPU 0 instructions: 1000000000 cycles: 683464855 cumulative IPC: 1.46313 (Simulation time: 0 hr 25 min 2 sec) 

ChampSim completed all CPUs

Region of Interest Statistics

CPU 0 cumulative IPC: 1.46313 instructions: 1000000000 cycles: 683464855
L1D TOTAL     ACCESS:  185096450  HIT:  182205460  MISS:    2890990
L1D LOAD      ACCESS:  112107250  HIT:  110072635  MISS:    2034615
L1D RFO       ACCESS:   72989200  HIT:   72132825  MISS:     856375
L1D PREFETCH  ACCESS:          0  HIT:          0  MISS:          0
L1D WRITEBACK ACCESS:          0  HIT:          0  MISS:          0
L1D PREFETCH  REQUESTED:          0  ISSUED:          0  USEFUL:          0  USELESS:          0
L1D AVERAGE MISS LATENCY: 114.025 cycles
L1I TOTAL     ACCESS:  159644686  HIT:  157527824  MISS:    2116862
L1I LOAD      ACCESS:  159644686  HIT:  157527824  MISS:    2116862
L1I RFO       ACCESS:          0  HIT:          0  MISS:          0
L1I PREFETCH  ACCESS:          0  HIT:          0  MISS:          0
L1I WRITEBACK ACCESS:          0  HIT:          0  MISS:          0
L1I PREFETCH  REQUESTED:          0  ISSUED:          0  USEFUL:          0  USELESS:          0
L1I AVERAGE MISS LATENCY: 14.3066 cycles
L2C TOTAL     ACCESS:    6010193  HIT:    4566781  MISS:    1443412
L2C LOAD      ACCESS:    4151409  HIT:    3144342  MISS:    1007067
L2C RFO       ACCESS:     853982  HIT:     423535  MISS:     430447
L2C PREFETCH  ACCESS:          0  HIT:          0  MISS:          0
L2C WRITEBACK ACCESS:    1004802  HIT:     998904  MISS:       5898
L2C PREFETCH  REQUESTED:          0  ISSUED:          0  USEFUL:          0  USELESS:          0
L2C AVERAGE MISS LATENCY: 206.734 cycles
LLC TOTAL     ACCESS:    1964618  HIT:     553643  MISS:    1410975
LLC LOAD      ACCESS:    1007064  HIT:     323597  MISS:     683467
LLC RFO       ACCESS:     430441  HIT:      14378  MISS:     416063
LLC PREFETCH  ACCESS:          0  HIT:          0  MISS:          0
LLC WRITEBACK ACCESS:     527113  HIT:     215668  MISS:     311445
LLC PREFETCH  REQUESTED:          0  ISSUED:          0  USEFUL:          0  USELESS:          0
LLC AVERAGE MISS LATENCY: 170.089 cycles
Major fault: 0 Minor fault: 9674

DRAM Statistics
 CHANNEL 0
 RQ ROW_BUFFER_HIT:     299690  ROW_BUFFER_MISS:     799745
 DBUS_CONGESTED:     477315
 WQ ROW_BUFFER_HIT:     126206  ROW_BUFFER_MISS:     364190  FULL:      12032

 AVG_CONGESTED_CYCLE: 6

CPU 0 Branch Prediction Accuracy: 92.2102% MPKI: 3.05576 Average ROB Occupancy at Mispredict: 44.9227

Branch types
NOT_BRANCH: 960772106 96.0772%
BRANCH_DIRECT_JUMP: 1534501 0.15345%
BRANCH_INDIRECT: 58107 0.0058107%
BRANCH_CONDITIONAL: 31962300 3.19623%
BRANCH_DIRECT_CALL: 1481511 0.148151%
BRANCH_INDIRECT_CALL: 1354833 0.135483%
BRANCH_RETURN: 2836344 0.283634%
BRANCH_OTHER: 0 0%

