
*** ChampSim Multicore Out-of-Order Simulator ***

Warmup Instructions: 100000000
Simulation Instructions: 1000000000
Number of CPUs: 1
LLC sets: 2048
LLC ways: 16
Off-chip DRAM Size: 4096 MB Channels: 1 Width: 64-bit Data Rate: 3200 MT/s

CPU 0 runs /scratch/user/kevin.weston/dpc3-traces/625.champsimtrace.xz
CPU 0 Bimodal branch predictor
Initialize DRRIP state
Assign rand_sets[0]: 454  LLC: 2048
rand_sets[0]: 454
Assign rand_sets[1]: 1662  LLC: 2048
rand_sets[1]: 1662
Assign rand_sets[2]: 1921  LLC: 2048
rand_sets[2]: 1921
Assign rand_sets[3]: 1131  LLC: 2048
rand_sets[3]: 1131
Assign rand_sets[4]: 331  LLC: 2048
rand_sets[4]: 331
Assign rand_sets[5]: 1531  LLC: 2048
rand_sets[5]: 1531
Assign rand_sets[6]: 482  LLC: 2048
rand_sets[6]: 482
Assign rand_sets[7]: 1275  LLC: 2048
rand_sets[7]: 1275
Assign rand_sets[8]: 1876  LLC: 2048
rand_sets[8]: 1876
Assign rand_sets[9]: 2038  LLC: 2048
rand_sets[9]: 2038
Assign rand_sets[10]: 701  LLC: 2048
rand_sets[10]: 701
Assign rand_sets[11]: 479  LLC: 2048
rand_sets[11]: 479
Assign rand_sets[12]: 892  LLC: 2048
rand_sets[12]: 892
Assign rand_sets[13]: 1820  LLC: 2048
rand_sets[13]: 1820
Assign rand_sets[14]: 1505  LLC: 2048
rand_sets[14]: 1505
Assign rand_sets[15]: 1159  LLC: 2048
rand_sets[15]: 1159
Assign rand_sets[16]: 513  LLC: 2048
rand_sets[16]: 513
Assign rand_sets[17]: 703  LLC: 2048
rand_sets[17]: 703
Assign rand_sets[18]: 561  LLC: 2048
rand_sets[18]: 561
Assign rand_sets[19]: 990  LLC: 2048
rand_sets[19]: 990
Assign rand_sets[20]: 342  LLC: 2048
rand_sets[20]: 342
Assign rand_sets[21]: 882  LLC: 2048
rand_sets[21]: 882
Assign rand_sets[22]: 15  LLC: 2048
rand_sets[22]: 15
Assign rand_sets[23]: 71  LLC: 2048
rand_sets[23]: 71
Assign rand_sets[24]: 1127  LLC: 2048
rand_sets[24]: 1127
Assign rand_sets[25]: 1382  LLC: 2048
rand_sets[25]: 1382
Assign rand_sets[26]: 647  LLC: 2048
rand_sets[26]: 647
Assign rand_sets[27]: 857  LLC: 2048
rand_sets[27]: 857
Assign rand_sets[28]: 1450  LLC: 2048
rand_sets[28]: 1450
Assign rand_sets[29]: 1160  LLC: 2048
rand_sets[29]: 1160
Assign rand_sets[30]: 1852  LLC: 2048
rand_sets[30]: 1852
Assign rand_sets[31]: 1881  LLC: 2048
rand_sets[31]: 1881
Assign rand_sets[32]: 1770  LLC: 2048
rand_sets[32]: 1770
Assign rand_sets[33]: 1622  LLC: 2048
rand_sets[33]: 1622
Assign rand_sets[34]: 275  LLC: 2048
rand_sets[34]: 275
Assign rand_sets[35]: 635  LLC: 2048
rand_sets[35]: 635
Assign rand_sets[36]: 466  LLC: 2048
rand_sets[36]: 466
Assign rand_sets[37]: 1413  LLC: 2048
rand_sets[37]: 1413
Assign rand_sets[38]: 417  LLC: 2048
rand_sets[38]: 417
Assign rand_sets[39]: 472  LLC: 2048
rand_sets[39]: 472
Assign rand_sets[40]: 1340  LLC: 2048
rand_sets[40]: 1340
Assign rand_sets[41]: 852  LLC: 2048
rand_sets[41]: 852
Assign rand_sets[42]: 1365  LLC: 2048
rand_sets[42]: 1365
Assign rand_sets[43]: 47  LLC: 2048
rand_sets[43]: 47
Assign rand_sets[44]: 823  LLC: 2048
rand_sets[44]: 823
Assign rand_sets[45]: 686  LLC: 2048
rand_sets[45]: 686
Assign rand_sets[46]: 1637  LLC: 2048
rand_sets[46]: 1637
Assign rand_sets[47]: 1115  LLC: 2048
rand_sets[47]: 1115
Assign rand_sets[48]: 986  LLC: 2048
rand_sets[48]: 986
Assign rand_sets[49]: 258  LLC: 2048
rand_sets[49]: 258
Assign rand_sets[50]: 633  LLC: 2048
rand_sets[50]: 633
Assign rand_sets[51]: 920  LLC: 2048
rand_sets[51]: 920
Assign rand_sets[52]: 204  LLC: 2048
rand_sets[52]: 204
Assign rand_sets[53]: 227  LLC: 2048
rand_sets[53]: 227
Assign rand_sets[54]: 1818  LLC: 2048
rand_sets[54]: 1818
Assign rand_sets[55]: 886  LLC: 2048
rand_sets[55]: 886
Assign rand_sets[56]: 1422  LLC: 2048
rand_sets[56]: 1422
Assign rand_sets[57]: 607  LLC: 2048
rand_sets[57]: 607
Assign rand_sets[58]: 217  LLC: 2048
rand_sets[58]: 217
Assign rand_sets[59]: 1945  LLC: 2048
rand_sets[59]: 1945
Assign rand_sets[60]: 143  LLC: 2048
rand_sets[60]: 143
Assign rand_sets[61]: 1311  LLC: 2048
rand_sets[61]: 1311
Assign rand_sets[62]: 319  LLC: 2048
rand_sets[62]: 319
Assign rand_sets[63]: 1846  LLC: 2048
rand_sets[63]: 1846
Heartbeat CPU 0 instructions: 10000001 cycles: 3383272 heartbeat IPC: 2.95572 cumulative IPC: 2.95572 (Simulation time: 0 hr 0 min 20 sec) 
Heartbeat CPU 0 instructions: 20000000 cycles: 6780092 heartbeat IPC: 2.94393 cumulative IPC: 2.94981 (Simulation time: 0 hr 0 min 40 sec) 
Heartbeat CPU 0 instructions: 30000000 cycles: 10162343 heartbeat IPC: 2.95661 cumulative IPC: 2.95208 (Simulation time: 0 hr 1 min 0 sec) 
Heartbeat CPU 0 instructions: 40000002 cycles: 13536215 heartbeat IPC: 2.96395 cumulative IPC: 2.95504 (Simulation time: 0 hr 1 min 19 sec) 
Heartbeat CPU 0 instructions: 50000003 cycles: 16904914 heartbeat IPC: 2.96851 cumulative IPC: 2.95772 (Simulation time: 0 hr 1 min 39 sec) 
Heartbeat CPU 0 instructions: 60000003 cycles: 20272624 heartbeat IPC: 2.96938 cumulative IPC: 2.95966 (Simulation time: 0 hr 1 min 59 sec) 
Heartbeat CPU 0 instructions: 70000002 cycles: 23644481 heartbeat IPC: 2.96572 cumulative IPC: 2.96052 (Simulation time: 0 hr 2 min 19 sec) 
Heartbeat CPU 0 instructions: 80000000 cycles: 27017688 heartbeat IPC: 2.96454 cumulative IPC: 2.96102 (Simulation time: 0 hr 2 min 39 sec) 
Heartbeat CPU 0 instructions: 90000000 cycles: 30391485 heartbeat IPC: 2.96402 cumulative IPC: 2.96136 (Simulation time: 0 hr 2 min 59 sec) 
Heartbeat CPU 0 instructions: 100000001 cycles: 33762998 heartbeat IPC: 2.96603 cumulative IPC: 2.96182 (Simulation time: 0 hr 3 min 20 sec) 

Warmup complete CPU 0 instructions: 100000001 cycles: 33762998 (Simulation time: 0 hr 3 min 20 sec) 

Heartbeat CPU 0 instructions: 110000000 cycles: 40131214 heartbeat IPC: 1.5703 cumulative IPC: 1.5703 (Simulation time: 0 hr 3 min 33 sec) 
Heartbeat CPU 0 instructions: 120000000 cycles: 46501473 heartbeat IPC: 1.56979 cumulative IPC: 1.57005 (Simulation time: 0 hr 3 min 45 sec) 
Heartbeat CPU 0 instructions: 130000000 cycles: 52899569 heartbeat IPC: 1.56297 cumulative IPC: 1.56768 (Simulation time: 0 hr 3 min 58 sec) 
Heartbeat CPU 0 instructions: 140000003 cycles: 64248887 heartbeat IPC: 0.88111 cumulative IPC: 1.31208 (Simulation time: 0 hr 4 min 13 sec) 
Heartbeat CPU 0 instructions: 150000000 cycles: 72275837 heartbeat IPC: 1.2458 cumulative IPC: 1.29827 (Simulation time: 0 hr 4 min 26 sec) 
Heartbeat CPU 0 instructions: 160000000 cycles: 78938812 heartbeat IPC: 1.50083 cumulative IPC: 1.32814 (Simulation time: 0 hr 4 min 37 sec) 
Heartbeat CPU 0 instructions: 170000003 cycles: 85713844 heartbeat IPC: 1.47601 cumulative IPC: 1.34743 (Simulation time: 0 hr 4 min 49 sec) 
Heartbeat CPU 0 instructions: 180000000 cycles: 92316473 heartbeat IPC: 1.51455 cumulative IPC: 1.36627 (Simulation time: 0 hr 5 min 0 sec) 
Heartbeat CPU 0 instructions: 190000000 cycles: 98958052 heartbeat IPC: 1.50567 cumulative IPC: 1.38047 (Simulation time: 0 hr 5 min 11 sec) 
Heartbeat CPU 0 instructions: 200000000 cycles: 105786284 heartbeat IPC: 1.46451 cumulative IPC: 1.38844 (Simulation time: 0 hr 5 min 23 sec) 
Heartbeat CPU 0 instructions: 210000001 cycles: 112409221 heartbeat IPC: 1.5099 cumulative IPC: 1.39867 (Simulation time: 0 hr 5 min 34 sec) 
Heartbeat CPU 0 instructions: 220000000 cycles: 119127648 heartbeat IPC: 1.48844 cumulative IPC: 1.40573 (Simulation time: 0 hr 5 min 45 sec) 
Heartbeat CPU 0 instructions: 230000001 cycles: 125884380 heartbeat IPC: 1.48001 cumulative IPC: 1.41118 (Simulation time: 0 hr 5 min 57 sec) 
Heartbeat CPU 0 instructions: 240000000 cycles: 132531747 heartbeat IPC: 1.50435 cumulative IPC: 1.41745 (Simulation time: 0 hr 6 min 8 sec) 
Heartbeat CPU 0 instructions: 250000000 cycles: 139320216 heartbeat IPC: 1.47309 cumulative IPC: 1.42103 (Simulation time: 0 hr 6 min 20 sec) 
Heartbeat CPU 0 instructions: 260000000 cycles: 145988977 heartbeat IPC: 1.49953 cumulative IPC: 1.42569 (Simulation time: 0 hr 6 min 31 sec) 
Heartbeat CPU 0 instructions: 270000001 cycles: 152652023 heartbeat IPC: 1.50082 cumulative IPC: 1.4299 (Simulation time: 0 hr 6 min 42 sec) 
Heartbeat CPU 0 instructions: 280000000 cycles: 159454249 heartbeat IPC: 1.47011 cumulative IPC: 1.43208 (Simulation time: 0 hr 6 min 54 sec) 
Heartbeat CPU 0 instructions: 290000000 cycles: 166114485 heartbeat IPC: 1.50145 cumulative IPC: 1.43557 (Simulation time: 0 hr 7 min 5 sec) 
Heartbeat CPU 0 instructions: 300000001 cycles: 172742183 heartbeat IPC: 1.50882 cumulative IPC: 1.43906 (Simulation time: 0 hr 7 min 16 sec) 
Heartbeat CPU 0 instructions: 310000000 cycles: 179554691 heartbeat IPC: 1.46789 cumulative IPC: 1.44041 (Simulation time: 0 hr 7 min 28 sec) 
Heartbeat CPU 0 instructions: 320000001 cycles: 186190013 heartbeat IPC: 1.50709 cumulative IPC: 1.44331 (Simulation time: 0 hr 7 min 39 sec) 
Heartbeat CPU 0 instructions: 330000000 cycles: 192802777 heartbeat IPC: 1.51223 cumulative IPC: 1.44618 (Simulation time: 0 hr 7 min 50 sec) 
Heartbeat CPU 0 instructions: 340000000 cycles: 199420475 heartbeat IPC: 1.5111 cumulative IPC: 1.44877 (Simulation time: 0 hr 8 min 2 sec) 
Heartbeat CPU 0 instructions: 350000003 cycles: 206024745 heartbeat IPC: 1.51417 cumulative IPC: 1.45128 (Simulation time: 0 hr 8 min 13 sec) 
Heartbeat CPU 0 instructions: 360000002 cycles: 212643555 heartbeat IPC: 1.51085 cumulative IPC: 1.45348 (Simulation time: 0 hr 8 min 24 sec) 
Heartbeat CPU 0 instructions: 370000001 cycles: 219241595 heartbeat IPC: 1.5156 cumulative IPC: 1.45569 (Simulation time: 0 hr 8 min 35 sec) 
Heartbeat CPU 0 instructions: 380000001 cycles: 225870786 heartbeat IPC: 1.50848 cumulative IPC: 1.45752 (Simulation time: 0 hr 8 min 47 sec) 
Heartbeat CPU 0 instructions: 390000000 cycles: 232513410 heartbeat IPC: 1.50543 cumulative IPC: 1.45912 (Simulation time: 0 hr 8 min 58 sec) 
Heartbeat CPU 0 instructions: 400000002 cycles: 245165935 heartbeat IPC: 0.790356 cumulative IPC: 1.41909 (Simulation time: 0 hr 9 min 14 sec) 
Heartbeat CPU 0 instructions: 410000000 cycles: 251586950 heartbeat IPC: 1.55739 cumulative IPC: 1.42317 (Simulation time: 0 hr 9 min 26 sec) 
Heartbeat CPU 0 instructions: 420000002 cycles: 258499334 heartbeat IPC: 1.44668 cumulative IPC: 1.42389 (Simulation time: 0 hr 9 min 39 sec) 
Heartbeat CPU 0 instructions: 430000002 cycles: 265426824 heartbeat IPC: 1.44352 cumulative IPC: 1.42448 (Simulation time: 0 hr 9 min 52 sec) 
Heartbeat CPU 0 instructions: 440000000 cycles: 271745807 heartbeat IPC: 1.58253 cumulative IPC: 1.42867 (Simulation time: 0 hr 10 min 4 sec) 
Heartbeat CPU 0 instructions: 450000000 cycles: 278017817 heartbeat IPC: 1.59439 cumulative IPC: 1.43293 (Simulation time: 0 hr 10 min 16 sec) 
Heartbeat CPU 0 instructions: 460000003 cycles: 284345043 heartbeat IPC: 1.58047 cumulative IPC: 1.43666 (Simulation time: 0 hr 10 min 28 sec) 
Heartbeat CPU 0 instructions: 470000000 cycles: 290705201 heartbeat IPC: 1.57229 cumulative IPC: 1.44001 (Simulation time: 0 hr 10 min 40 sec) 
Heartbeat CPU 0 instructions: 480000001 cycles: 296989379 heartbeat IPC: 1.5913 cumulative IPC: 1.44362 (Simulation time: 0 hr 10 min 52 sec) 
Heartbeat CPU 0 instructions: 490000002 cycles: 303360501 heartbeat IPC: 1.56958 cumulative IPC: 1.4466 (Simulation time: 0 hr 11 min 4 sec) 
Heartbeat CPU 0 instructions: 500000001 cycles: 309683689 heartbeat IPC: 1.58148 cumulative IPC: 1.44969 (Simulation time: 0 hr 11 min 17 sec) 
Heartbeat CPU 0 instructions: 510000002 cycles: 315991407 heartbeat IPC: 1.58536 cumulative IPC: 1.45272 (Simulation time: 0 hr 11 min 29 sec) 
Heartbeat CPU 0 instructions: 520000002 cycles: 322232590 heartbeat IPC: 1.60226 cumulative IPC: 1.45596 (Simulation time: 0 hr 11 min 41 sec) 
Heartbeat CPU 0 instructions: 530000001 cycles: 328475927 heartbeat IPC: 1.60171 cumulative IPC: 1.45905 (Simulation time: 0 hr 11 min 53 sec) 
Heartbeat CPU 0 instructions: 540000002 cycles: 334798389 heartbeat IPC: 1.58166 cumulative IPC: 1.46162 (Simulation time: 0 hr 12 min 5 sec) 
Heartbeat CPU 0 instructions: 550000000 cycles: 340998956 heartbeat IPC: 1.61276 cumulative IPC: 1.46467 (Simulation time: 0 hr 12 min 17 sec) 
Heartbeat CPU 0 instructions: 560000000 cycles: 347205946 heartbeat IPC: 1.61109 cumulative IPC: 1.46757 (Simulation time: 0 hr 12 min 29 sec) 
Heartbeat CPU 0 instructions: 570000000 cycles: 360490544 heartbeat IPC: 0.752751 cumulative IPC: 1.43851 (Simulation time: 0 hr 12 min 46 sec) 
Heartbeat CPU 0 instructions: 580000002 cycles: 366564132 heartbeat IPC: 1.64647 cumulative IPC: 1.4423 (Simulation time: 0 hr 12 min 59 sec) 
Heartbeat CPU 0 instructions: 590000002 cycles: 374067495 heartbeat IPC: 1.33274 cumulative IPC: 1.43989 (Simulation time: 0 hr 13 min 12 sec) 
Heartbeat CPU 0 instructions: 600000003 cycles: 380899129 heartbeat IPC: 1.46378 cumulative IPC: 1.44036 (Simulation time: 0 hr 13 min 27 sec) 
Heartbeat CPU 0 instructions: 610000001 cycles: 387769483 heartbeat IPC: 1.45553 cumulative IPC: 1.44065 (Simulation time: 0 hr 13 min 41 sec) 
Heartbeat CPU 0 instructions: 620000002 cycles: 394601187 heartbeat IPC: 1.46376 cumulative IPC: 1.44109 (Simulation time: 0 hr 13 min 55 sec) 
Heartbeat CPU 0 instructions: 630000002 cycles: 401431755 heartbeat IPC: 1.46401 cumulative IPC: 1.44151 (Simulation time: 0 hr 14 min 9 sec) 
Heartbeat CPU 0 instructions: 640000000 cycles: 408280965 heartbeat IPC: 1.46002 cumulative IPC: 1.44185 (Simulation time: 0 hr 14 min 23 sec) 
Heartbeat CPU 0 instructions: 650000000 cycles: 415076030 heartbeat IPC: 1.47166 cumulative IPC: 1.44238 (Simulation time: 0 hr 14 min 37 sec) 
Heartbeat CPU 0 instructions: 660000000 cycles: 421836191 heartbeat IPC: 1.47925 cumulative IPC: 1.44303 (Simulation time: 0 hr 14 min 51 sec) 
Heartbeat CPU 0 instructions: 670000000 cycles: 434874282 heartbeat IPC: 0.766983 cumulative IPC: 1.42105 (Simulation time: 0 hr 15 min 9 sec) 
Heartbeat CPU 0 instructions: 680000002 cycles: 441469025 heartbeat IPC: 1.51636 cumulative IPC: 1.42259 (Simulation time: 0 hr 15 min 22 sec) 
Heartbeat CPU 0 instructions: 690000000 cycles: 448830291 heartbeat IPC: 1.35846 cumulative IPC: 1.42146 (Simulation time: 0 hr 15 min 36 sec) 
Heartbeat CPU 0 instructions: 700000001 cycles: 455707105 heartbeat IPC: 1.45416 cumulative IPC: 1.42199 (Simulation time: 0 hr 15 min 50 sec) 
Heartbeat CPU 0 instructions: 710000001 cycles: 462562782 heartbeat IPC: 1.45865 cumulative IPC: 1.42258 (Simulation time: 0 hr 16 min 4 sec) 
Heartbeat CPU 0 instructions: 720000001 cycles: 469377078 heartbeat IPC: 1.4675 cumulative IPC: 1.42328 (Simulation time: 0 hr 16 min 19 sec) 
Heartbeat CPU 0 instructions: 730000001 cycles: 476213541 heartbeat IPC: 1.46274 cumulative IPC: 1.42389 (Simulation time: 0 hr 16 min 33 sec) 
Heartbeat CPU 0 instructions: 740000000 cycles: 483022400 heartbeat IPC: 1.46867 cumulative IPC: 1.42457 (Simulation time: 0 hr 16 min 47 sec) 
Heartbeat CPU 0 instructions: 750000000 cycles: 489809016 heartbeat IPC: 1.47349 cumulative IPC: 1.42529 (Simulation time: 0 hr 17 min 1 sec) 
Heartbeat CPU 0 instructions: 760000001 cycles: 502992871 heartbeat IPC: 0.758504 cumulative IPC: 1.40656 (Simulation time: 0 hr 17 min 20 sec) 
Heartbeat CPU 0 instructions: 770000000 cycles: 509227633 heartbeat IPC: 1.60391 cumulative IPC: 1.40915 (Simulation time: 0 hr 17 min 32 sec) 
Heartbeat CPU 0 instructions: 780000001 cycles: 516431596 heartbeat IPC: 1.38812 cumulative IPC: 1.40883 (Simulation time: 0 hr 17 min 45 sec) 
Heartbeat CPU 0 instructions: 790000000 cycles: 522826669 heartbeat IPC: 1.5637 cumulative IPC: 1.41086 (Simulation time: 0 hr 17 min 59 sec) 
Heartbeat CPU 0 instructions: 800000003 cycles: 529200040 heartbeat IPC: 1.56903 cumulative IPC: 1.41289 (Simulation time: 0 hr 18 min 12 sec) 
Heartbeat CPU 0 instructions: 810000002 cycles: 535573897 heartbeat IPC: 1.56891 cumulative IPC: 1.41488 (Simulation time: 0 hr 18 min 26 sec) 
Heartbeat CPU 0 instructions: 820000003 cycles: 541942239 heartbeat IPC: 1.57027 cumulative IPC: 1.41682 (Simulation time: 0 hr 18 min 39 sec) 
Heartbeat CPU 0 instructions: 830000000 cycles: 548310237 heartbeat IPC: 1.57035 cumulative IPC: 1.41872 (Simulation time: 0 hr 18 min 53 sec) 
Heartbeat CPU 0 instructions: 840000003 cycles: 554681151 heartbeat IPC: 1.56963 cumulative IPC: 1.42057 (Simulation time: 0 hr 19 min 6 sec) 
Heartbeat CPU 0 instructions: 850000000 cycles: 561051204 heartbeat IPC: 1.56985 cumulative IPC: 1.42237 (Simulation time: 0 hr 19 min 20 sec) 
Heartbeat CPU 0 instructions: 860000001 cycles: 567412791 heartbeat IPC: 1.57193 cumulative IPC: 1.42415 (Simulation time: 0 hr 19 min 33 sec) 
Heartbeat CPU 0 instructions: 870000002 cycles: 573791266 heartbeat IPC: 1.56777 cumulative IPC: 1.42585 (Simulation time: 0 hr 19 min 47 sec) 
Heartbeat CPU 0 instructions: 880000000 cycles: 580172502 heartbeat IPC: 1.56709 cumulative IPC: 1.4275 (Simulation time: 0 hr 20 min 0 sec) 
Heartbeat CPU 0 instructions: 890000003 cycles: 586561593 heartbeat IPC: 1.56517 cumulative IPC: 1.42909 (Simulation time: 0 hr 20 min 13 sec) 
Heartbeat CPU 0 instructions: 900000002 cycles: 592947370 heartbeat IPC: 1.56598 cumulative IPC: 1.43066 (Simulation time: 0 hr 20 min 26 sec) 
Heartbeat CPU 0 instructions: 910000000 cycles: 599343103 heartbeat IPC: 1.56354 cumulative IPC: 1.43216 (Simulation time: 0 hr 20 min 40 sec) 
Heartbeat CPU 0 instructions: 920000001 cycles: 605728773 heartbeat IPC: 1.56601 cumulative IPC: 1.43365 (Simulation time: 0 hr 20 min 53 sec) 
Heartbeat CPU 0 instructions: 930000003 cycles: 612125014 heartbeat IPC: 1.56342 cumulative IPC: 1.43509 (Simulation time: 0 hr 21 min 6 sec) 
Heartbeat CPU 0 instructions: 940000000 cycles: 618515669 heartbeat IPC: 1.56478 cumulative IPC: 1.4365 (Simulation time: 0 hr 21 min 20 sec) 
Heartbeat CPU 0 instructions: 950000000 cycles: 624915669 heartbeat IPC: 1.5625 cumulative IPC: 1.43787 (Simulation time: 0 hr 21 min 33 sec) 
Heartbeat CPU 0 instructions: 960000003 cycles: 631317428 heartbeat IPC: 1.56207 cumulative IPC: 1.4392 (Simulation time: 0 hr 21 min 46 sec) 
Heartbeat CPU 0 instructions: 970000001 cycles: 637720837 heartbeat IPC: 1.56167 cumulative IPC: 1.4405 (Simulation time: 0 hr 22 min 0 sec) 
Heartbeat CPU 0 instructions: 980000003 cycles: 644121581 heartbeat IPC: 1.56232 cumulative IPC: 1.44178 (Simulation time: 0 hr 22 min 13 sec) 
Heartbeat CPU 0 instructions: 990000000 cycles: 650509613 heartbeat IPC: 1.56543 cumulative IPC: 1.44306 (Simulation time: 0 hr 22 min 26 sec) 
Heartbeat CPU 0 instructions: 1000000000 cycles: 656907371 heartbeat IPC: 1.56305 cumulative IPC: 1.44429 (Simulation time: 0 hr 22 min 39 sec) 
Heartbeat CPU 0 instructions: 1010000002 cycles: 663296554 heartbeat IPC: 1.56515 cumulative IPC: 1.44551 (Simulation time: 0 hr 22 min 52 sec) 
Heartbeat CPU 0 instructions: 1020000000 cycles: 669619675 heartbeat IPC: 1.5815 cumulative IPC: 1.44687 (Simulation time: 0 hr 23 min 6 sec) 
Heartbeat CPU 0 instructions: 1030000002 cycles: 675882279 heartbeat IPC: 1.59678 cumulative IPC: 1.44833 (Simulation time: 0 hr 23 min 20 sec) 
Heartbeat CPU 0 instructions: 1040000002 cycles: 682128902 heartbeat IPC: 1.60087 cumulative IPC: 1.4498 (Simulation time: 0 hr 23 min 34 sec) 
Heartbeat CPU 0 instructions: 1050000003 cycles: 688363566 heartbeat IPC: 1.60394 cumulative IPC: 1.45127 (Simulation time: 0 hr 23 min 48 sec) 
Heartbeat CPU 0 instructions: 1060000000 cycles: 694730253 heartbeat IPC: 1.57068 cumulative IPC: 1.45242 (Simulation time: 0 hr 24 min 1 sec) 
Heartbeat CPU 0 instructions: 1070000000 cycles: 701122329 heartbeat IPC: 1.56444 cumulative IPC: 1.45349 (Simulation time: 0 hr 24 min 14 sec) 
Heartbeat CPU 0 instructions: 1080000001 cycles: 707508803 heartbeat IPC: 1.56581 cumulative IPC: 1.45455 (Simulation time: 0 hr 24 min 27 sec) 
Heartbeat CPU 0 instructions: 1090000000 cycles: 713890480 heartbeat IPC: 1.56699 cumulative IPC: 1.45561 (Simulation time: 0 hr 24 min 40 sec) 
Heartbeat CPU 0 instructions: 1100000000 cycles: 720265002 heartbeat IPC: 1.56875 cumulative IPC: 1.45666 (Simulation time: 0 hr 24 min 53 sec) 
Finished CPU 0 instructions: 1000000000 cycles: 686502005 cumulative IPC: 1.45666 (Simulation time: 0 hr 24 min 53 sec) 

ChampSim completed all CPUs

Region of Interest Statistics

CPU 0 cumulative IPC: 1.45666 instructions: 1000000000 cycles: 686502005
L1D TOTAL     ACCESS:  185654334  HIT:  182763403  MISS:    2890931
L1D LOAD      ACCESS:  112503730  HIT:  110469164  MISS:    2034566
L1D RFO       ACCESS:   73150604  HIT:   72294239  MISS:     856365
L1D PREFETCH  ACCESS:          0  HIT:          0  MISS:          0
L1D WRITEBACK ACCESS:          0  HIT:          0  MISS:          0
L1D PREFETCH  REQUESTED:          0  ISSUED:          0  USEFUL:          0  USELESS:          0
L1D AVERAGE MISS LATENCY: 113.242 cycles
L1I TOTAL     ACCESS:  159609798  HIT:  157492935  MISS:    2116863
L1I LOAD      ACCESS:  159609798  HIT:  157492935  MISS:    2116863
L1I RFO       ACCESS:          0  HIT:          0  MISS:          0
L1I PREFETCH  ACCESS:          0  HIT:          0  MISS:          0
L1I WRITEBACK ACCESS:          0  HIT:          0  MISS:          0
L1I PREFETCH  REQUESTED:          0  ISSUED:          0  USEFUL:          0  USELESS:          0
L1I AVERAGE MISS LATENCY: 14.2893 cycles
L2C TOTAL     ACCESS:    6010072  HIT:    4575370  MISS:    1434702
L2C LOAD      ACCESS:    4151363  HIT:    3150060  MISS:    1001303
L2C RFO       ACCESS:     853930  HIT:     424627  MISS:     429303
L2C PREFETCH  ACCESS:          0  HIT:          0  MISS:          0
L2C WRITEBACK ACCESS:    1004779  HIT:    1000683  MISS:       4096
L2C PREFETCH  REQUESTED:          0  ISSUED:          0  USEFUL:          0  USELESS:          0
L2C AVERAGE MISS LATENCY: 206.388 cycles
LLC TOTAL     ACCESS:    1954235  HIT:     836613  MISS:    1117622
LLC LOAD      ACCESS:    1001302  HIT:     306939  MISS:     694363
LLC RFO       ACCESS:     429300  HIT:      13215  MISS:     416085
LLC PREFETCH  ACCESS:          0  HIT:          0  MISS:          0
LLC WRITEBACK ACCESS:     523633  HIT:     516459  MISS:       7174
LLC PREFETCH  REQUESTED:          0  ISSUED:          0  USEFUL:          0  USELESS:          0
LLC AVERAGE MISS LATENCY: 212.921 cycles
Major fault: 0 Minor fault: 9674

DRAM Statistics
 CHANNEL 0
 RQ ROW_BUFFER_HIT:     277235  ROW_BUFFER_MISS:     833188
 DBUS_CONGESTED:     479050
 WQ ROW_BUFFER_HIT:     150179  ROW_BUFFER_MISS:     346049  FULL:          0

 AVG_CONGESTED_CYCLE: 6

CPU 0 Branch Prediction Accuracy: 92.2102% MPKI: 3.05576 Average ROB Occupancy at Mispredict: 44.782

Branch types
NOT_BRANCH: 960772106 96.0772%
BRANCH_DIRECT_JUMP: 1534501 0.15345%
BRANCH_INDIRECT: 58107 0.0058107%
BRANCH_CONDITIONAL: 31962300 3.19623%
BRANCH_DIRECT_CALL: 1481511 0.148151%
BRANCH_INDIRECT_CALL: 1354833 0.135483%
BRANCH_RETURN: 2836344 0.283634%
BRANCH_OTHER: 0 0%

