
*** ChampSim Multicore Out-of-Order Simulator ***

Warmup Instructions: 100000000
Simulation Instructions: 1000000000
Number of CPUs: 1
LLC sets: 2048
LLC ways: 16
Off-chip DRAM Size: 4096 MB Channels: 1 Width: 64-bit Data Rate: 3200 MT/s

CPU 0 runs /scratch/user/kevin.weston/dpc3-traces/627.champsimtrace.xz
CPU 0 Bimodal branch predictor
Initialize SRRIP state
Heartbeat CPU 0 instructions: 10000003 cycles: 3428490 heartbeat IPC: 2.91674 cumulative IPC: 2.91674 (Simulation time: 0 hr 0 min 17 sec) 
Heartbeat CPU 0 instructions: 20000001 cycles: 6666101 heartbeat IPC: 3.0887 cumulative IPC: 3.00025 (Simulation time: 0 hr 0 min 37 sec) 
Heartbeat CPU 0 instructions: 30000003 cycles: 9897191 heartbeat IPC: 3.09493 cumulative IPC: 3.03116 (Simulation time: 0 hr 0 min 56 sec) 
Heartbeat CPU 0 instructions: 40000003 cycles: 13067227 heartbeat IPC: 3.15454 cumulative IPC: 3.06109 (Simulation time: 0 hr 1 min 16 sec) 
Heartbeat CPU 0 instructions: 50000002 cycles: 16395608 heartbeat IPC: 3.00446 cumulative IPC: 3.0496 (Simulation time: 0 hr 1 min 36 sec) 
Heartbeat CPU 0 instructions: 60000003 cycles: 19756922 heartbeat IPC: 2.97503 cumulative IPC: 3.03691 (Simulation time: 0 hr 1 min 56 sec) 
Heartbeat CPU 0 instructions: 70000002 cycles: 23051651 heartbeat IPC: 3.03515 cumulative IPC: 3.03666 (Simulation time: 0 hr 2 min 15 sec) 
Heartbeat CPU 0 instructions: 80000002 cycles: 26415198 heartbeat IPC: 2.97305 cumulative IPC: 3.02856 (Simulation time: 0 hr 2 min 34 sec) 
Heartbeat CPU 0 instructions: 90000001 cycles: 29972646 heartbeat IPC: 2.811 cumulative IPC: 3.00274 (Simulation time: 0 hr 2 min 53 sec) 
Heartbeat CPU 0 instructions: 100000001 cycles: 33470106 heartbeat IPC: 2.85922 cumulative IPC: 2.98774 (Simulation time: 0 hr 3 min 13 sec) 

Warmup complete CPU 0 instructions: 100000001 cycles: 33470106 (Simulation time: 0 hr 3 min 13 sec) 

Heartbeat CPU 0 instructions: 110000000 cycles: 55053718 heartbeat IPC: 0.463314 cumulative IPC: 0.463314 (Simulation time: 0 hr 3 min 40 sec) 
Heartbeat CPU 0 instructions: 120000002 cycles: 61481729 heartbeat IPC: 1.55569 cumulative IPC: 0.713989 (Simulation time: 0 hr 3 min 57 sec) 
Heartbeat CPU 0 instructions: 130000000 cycles: 67333659 heartbeat IPC: 1.70884 cumulative IPC: 0.885908 (Simulation time: 0 hr 4 min 13 sec) 
Heartbeat CPU 0 instructions: 140000001 cycles: 73172417 heartbeat IPC: 1.71269 cumulative IPC: 1.0075 (Simulation time: 0 hr 4 min 28 sec) 
Heartbeat CPU 0 instructions: 150000001 cycles: 80992629 heartbeat IPC: 1.27874 cumulative IPC: 1.05213 (Simulation time: 0 hr 4 min 43 sec) 
Heartbeat CPU 0 instructions: 160000001 cycles: 89581635 heartbeat IPC: 1.16428 cumulative IPC: 1.0693 (Simulation time: 0 hr 4 min 57 sec) 
Heartbeat CPU 0 instructions: 170000001 cycles: 97943290 heartbeat IPC: 1.19594 cumulative IPC: 1.08572 (Simulation time: 0 hr 5 min 11 sec) 
Heartbeat CPU 0 instructions: 180000001 cycles: 106084481 heartbeat IPC: 1.22832 cumulative IPC: 1.10171 (Simulation time: 0 hr 5 min 25 sec) 
Heartbeat CPU 0 instructions: 190000000 cycles: 114482903 heartbeat IPC: 1.1907 cumulative IPC: 1.11094 (Simulation time: 0 hr 5 min 41 sec) 
Heartbeat CPU 0 instructions: 200000003 cycles: 124425195 heartbeat IPC: 1.0058 cumulative IPC: 1.09944 (Simulation time: 0 hr 5 min 56 sec) 
Heartbeat CPU 0 instructions: 210000000 cycles: 146627719 heartbeat IPC: 0.450399 cumulative IPC: 0.972095 (Simulation time: 0 hr 6 min 24 sec) 
Heartbeat CPU 0 instructions: 220000000 cycles: 153463166 heartbeat IPC: 1.46296 cumulative IPC: 1.00006 (Simulation time: 0 hr 6 min 40 sec) 
Heartbeat CPU 0 instructions: 230000003 cycles: 159293242 heartbeat IPC: 1.71524 cumulative IPC: 1.0332 (Simulation time: 0 hr 6 min 57 sec) 
Heartbeat CPU 0 instructions: 240000001 cycles: 165101684 heartbeat IPC: 1.72163 cumulative IPC: 1.06357 (Simulation time: 0 hr 7 min 13 sec) 
Heartbeat CPU 0 instructions: 250000000 cycles: 172186592 heartbeat IPC: 1.41145 cumulative IPC: 1.08134 (Simulation time: 0 hr 7 min 27 sec) 
Heartbeat CPU 0 instructions: 260000003 cycles: 180643107 heartbeat IPC: 1.18252 cumulative IPC: 1.08716 (Simulation time: 0 hr 7 min 41 sec) 
Heartbeat CPU 0 instructions: 270000000 cycles: 189006037 heartbeat IPC: 1.19575 cumulative IPC: 1.093 (Simulation time: 0 hr 7 min 56 sec) 
Heartbeat CPU 0 instructions: 280000002 cycles: 196333225 heartbeat IPC: 1.36478 cumulative IPC: 1.10522 (Simulation time: 0 hr 8 min 10 sec) 
Heartbeat CPU 0 instructions: 290000003 cycles: 205321735 heartbeat IPC: 1.11253 cumulative IPC: 1.1056 (Simulation time: 0 hr 8 min 25 sec) 
Heartbeat CPU 0 instructions: 300000003 cycles: 214749270 heartbeat IPC: 1.06072 cumulative IPC: 1.10327 (Simulation time: 0 hr 8 min 40 sec) 
Heartbeat CPU 0 instructions: 310000000 cycles: 237098400 heartbeat IPC: 0.447445 cumulative IPC: 1.03129 (Simulation time: 0 hr 9 min 10 sec) 
Heartbeat CPU 0 instructions: 320000000 cycles: 245036355 heartbeat IPC: 1.25977 cumulative IPC: 1.03986 (Simulation time: 0 hr 9 min 24 sec) 
Heartbeat CPU 0 instructions: 330000000 cycles: 250891978 heartbeat IPC: 1.70776 cumulative IPC: 1.05785 (Simulation time: 0 hr 9 min 41 sec) 
Heartbeat CPU 0 instructions: 340000000 cycles: 256677343 heartbeat IPC: 1.7285 cumulative IPC: 1.07523 (Simulation time: 0 hr 9 min 57 sec) 
Heartbeat CPU 0 instructions: 350000000 cycles: 262937272 heartbeat IPC: 1.59746 cumulative IPC: 1.08948 (Simulation time: 0 hr 10 min 12 sec) 
Heartbeat CPU 0 instructions: 360000000 cycles: 270568968 heartbeat IPC: 1.31032 cumulative IPC: 1.09659 (Simulation time: 0 hr 10 min 26 sec) 
Heartbeat CPU 0 instructions: 370000000 cycles: 279133570 heartbeat IPC: 1.1676 cumulative IPC: 1.09906 (Simulation time: 0 hr 10 min 40 sec) 
Heartbeat CPU 0 instructions: 380000000 cycles: 287067026 heartbeat IPC: 1.26048 cumulative IPC: 1.10411 (Simulation time: 0 hr 10 min 55 sec) 
Heartbeat CPU 0 instructions: 390000000 cycles: 295511836 heartbeat IPC: 1.18416 cumulative IPC: 1.10669 (Simulation time: 0 hr 11 min 9 sec) 
Heartbeat CPU 0 instructions: 400000000 cycles: 303729191 heartbeat IPC: 1.21694 cumulative IPC: 1.11005 (Simulation time: 0 hr 11 min 24 sec) 
Heartbeat CPU 0 instructions: 410000001 cycles: 316015373 heartbeat IPC: 0.813923 cumulative IPC: 1.09717 (Simulation time: 0 hr 11 min 42 sec) 
Heartbeat CPU 0 instructions: 420000001 cycles: 335886023 heartbeat IPC: 0.503255 cumulative IPC: 1.05815 (Simulation time: 0 hr 12 min 8 sec) 
Heartbeat CPU 0 instructions: 430000003 cycles: 342129438 heartbeat IPC: 1.60169 cumulative IPC: 1.06914 (Simulation time: 0 hr 12 min 24 sec) 
Heartbeat CPU 0 instructions: 440000000 cycles: 347966377 heartbeat IPC: 1.71323 cumulative IPC: 1.08109 (Simulation time: 0 hr 12 min 40 sec) 
Heartbeat CPU 0 instructions: 450000000 cycles: 353876964 heartbeat IPC: 1.69188 cumulative IPC: 1.09236 (Simulation time: 0 hr 12 min 56 sec) 
Heartbeat CPU 0 instructions: 460000000 cycles: 361426825 heartbeat IPC: 1.32453 cumulative IPC: 1.09771 (Simulation time: 0 hr 13 min 11 sec) 
Heartbeat CPU 0 instructions: 470000001 cycles: 369902752 heartbeat IPC: 1.17981 cumulative IPC: 1.09977 (Simulation time: 0 hr 13 min 25 sec) 
Heartbeat CPU 0 instructions: 480000001 cycles: 378052160 heartbeat IPC: 1.22708 cumulative IPC: 1.10279 (Simulation time: 0 hr 13 min 39 sec) 
Heartbeat CPU 0 instructions: 490000003 cycles: 386304575 heartbeat IPC: 1.21177 cumulative IPC: 1.10533 (Simulation time: 0 hr 13 min 53 sec) 
Heartbeat CPU 0 instructions: 500000001 cycles: 394573308 heartbeat IPC: 1.20937 cumulative IPC: 1.10772 (Simulation time: 0 hr 14 min 8 sec) 
Heartbeat CPU 0 instructions: 510000001 cycles: 404843068 heartbeat IPC: 0.973733 cumulative IPC: 1.10401 (Simulation time: 0 hr 14 min 24 sec) 
Heartbeat CPU 0 instructions: 520000001 cycles: 426827347 heartbeat IPC: 0.45487 cumulative IPC: 1.06773 (Simulation time: 0 hr 14 min 52 sec) 
Heartbeat CPU 0 instructions: 530000001 cycles: 433087961 heartbeat IPC: 1.59729 cumulative IPC: 1.07603 (Simulation time: 0 hr 15 min 8 sec) 
Heartbeat CPU 0 instructions: 540000000 cycles: 438919587 heartbeat IPC: 1.71479 cumulative IPC: 1.08522 (Simulation time: 0 hr 15 min 25 sec) 
Heartbeat CPU 0 instructions: 550000000 cycles: 444850649 heartbeat IPC: 1.68604 cumulative IPC: 1.09388 (Simulation time: 0 hr 15 min 40 sec) 
Heartbeat CPU 0 instructions: 560000000 cycles: 452093269 heartbeat IPC: 1.38072 cumulative IPC: 1.09884 (Simulation time: 0 hr 15 min 55 sec) 
Heartbeat CPU 0 instructions: 570000000 cycles: 460328358 heartbeat IPC: 1.21432 cumulative IPC: 1.10107 (Simulation time: 0 hr 16 min 9 sec) 
Heartbeat CPU 0 instructions: 580000001 cycles: 468571689 heartbeat IPC: 1.2131 cumulative IPC: 1.10319 (Simulation time: 0 hr 16 min 23 sec) 
Heartbeat CPU 0 instructions: 590000000 cycles: 476787182 heartbeat IPC: 1.21721 cumulative IPC: 1.1053 (Simulation time: 0 hr 16 min 37 sec) 
Heartbeat CPU 0 instructions: 600000002 cycles: 485278134 heartbeat IPC: 1.17772 cumulative IPC: 1.10666 (Simulation time: 0 hr 16 min 52 sec) 
Heartbeat CPU 0 instructions: 610000003 cycles: 495244144 heartbeat IPC: 1.00341 cumulative IPC: 1.10444 (Simulation time: 0 hr 17 min 8 sec) 
Heartbeat CPU 0 instructions: 620000002 cycles: 517285278 heartbeat IPC: 0.453697 cumulative IPC: 1.07479 (Simulation time: 0 hr 17 min 36 sec) 
Heartbeat CPU 0 instructions: 630000000 cycles: 523694102 heartbeat IPC: 1.56035 cumulative IPC: 1.08114 (Simulation time: 0 hr 17 min 52 sec) 
Heartbeat CPU 0 instructions: 640000002 cycles: 529549304 heartbeat IPC: 1.70788 cumulative IPC: 1.08854 (Simulation time: 0 hr 18 min 8 sec) 
Heartbeat CPU 0 instructions: 650000000 cycles: 536080341 heartbeat IPC: 1.53115 cumulative IPC: 1.09429 (Simulation time: 0 hr 18 min 24 sec) 
Heartbeat CPU 0 instructions: 660000000 cycles: 544571450 heartbeat IPC: 1.1777 cumulative IPC: 1.09567 (Simulation time: 0 hr 18 min 37 sec) 
Heartbeat CPU 0 instructions: 670000000 cycles: 553181126 heartbeat IPC: 1.16148 cumulative IPC: 1.09676 (Simulation time: 0 hr 18 min 51 sec) 
Heartbeat CPU 0 instructions: 680000000 cycles: 560862960 heartbeat IPC: 1.30177 cumulative IPC: 1.09975 (Simulation time: 0 hr 19 min 6 sec) 
Heartbeat CPU 0 instructions: 690000002 cycles: 569482663 heartbeat IPC: 1.16013 cumulative IPC: 1.10072 (Simulation time: 0 hr 19 min 21 sec) 
Heartbeat CPU 0 instructions: 700000001 cycles: 579516437 heartbeat IPC: 0.996634 cumulative IPC: 1.09881 (Simulation time: 0 hr 19 min 36 sec) 
Heartbeat CPU 0 instructions: 710000001 cycles: 601654664 heartbeat IPC: 0.451707 cumulative IPC: 1.07359 (Simulation time: 0 hr 20 min 4 sec) 
Heartbeat CPU 0 instructions: 720000003 cycles: 608428753 heartbeat IPC: 1.47621 cumulative IPC: 1.07834 (Simulation time: 0 hr 20 min 20 sec) 
Heartbeat CPU 0 instructions: 730000000 cycles: 614355807 heartbeat IPC: 1.68718 cumulative IPC: 1.08455 (Simulation time: 0 hr 20 min 37 sec) 
Heartbeat CPU 0 instructions: 740000002 cycles: 621203770 heartbeat IPC: 1.46029 cumulative IPC: 1.08893 (Simulation time: 0 hr 20 min 52 sec) 
Heartbeat CPU 0 instructions: 750000002 cycles: 629297034 heartbeat IPC: 1.2356 cumulative IPC: 1.09092 (Simulation time: 0 hr 21 min 6 sec) 
Heartbeat CPU 0 instructions: 760000000 cycles: 637811873 heartbeat IPC: 1.17442 cumulative IPC: 1.0921 (Simulation time: 0 hr 21 min 20 sec) 
Heartbeat CPU 0 instructions: 770000000 cycles: 645515045 heartbeat IPC: 1.29817 cumulative IPC: 1.09469 (Simulation time: 0 hr 21 min 34 sec) 
Heartbeat CPU 0 instructions: 780000003 cycles: 654210861 heartbeat IPC: 1.14998 cumulative IPC: 1.09547 (Simulation time: 0 hr 21 min 49 sec) 
Heartbeat CPU 0 instructions: 790000000 cycles: 663771888 heartbeat IPC: 1.04591 cumulative IPC: 1.09471 (Simulation time: 0 hr 22 min 4 sec) 
Heartbeat CPU 0 instructions: 800000000 cycles: 686233990 heartbeat IPC: 0.445194 cumulative IPC: 1.07236 (Simulation time: 0 hr 22 min 33 sec) 
Heartbeat CPU 0 instructions: 810000003 cycles: 693215829 heartbeat IPC: 1.43229 cumulative IPC: 1.07617 (Simulation time: 0 hr 22 min 49 sec) 
Heartbeat CPU 0 instructions: 820000002 cycles: 699048880 heartbeat IPC: 1.71437 cumulative IPC: 1.08177 (Simulation time: 0 hr 23 min 6 sec) 
Heartbeat CPU 0 instructions: 830000001 cycles: 706247909 heartbeat IPC: 1.38908 cumulative IPC: 1.08505 (Simulation time: 0 hr 23 min 20 sec) 
Heartbeat CPU 0 instructions: 840000000 cycles: 713813428 heartbeat IPC: 1.32179 cumulative IPC: 1.08769 (Simulation time: 0 hr 23 min 35 sec) 
Heartbeat CPU 0 instructions: 850000001 cycles: 722297116 heartbeat IPC: 1.17873 cumulative IPC: 1.08881 (Simulation time: 0 hr 23 min 49 sec) 
Heartbeat CPU 0 instructions: 860000002 cycles: 729668881 heartbeat IPC: 1.35653 cumulative IPC: 1.09164 (Simulation time: 0 hr 24 min 3 sec) 
Heartbeat CPU 0 instructions: 870000000 cycles: 738648136 heartbeat IPC: 1.11368 cumulative IPC: 1.09192 (Simulation time: 0 hr 24 min 18 sec) 
Heartbeat CPU 0 instructions: 880000000 cycles: 748306469 heartbeat IPC: 1.03538 cumulative IPC: 1.09116 (Simulation time: 0 hr 24 min 32 sec) 
Heartbeat CPU 0 instructions: 890000000 cycles: 770628063 heartbeat IPC: 0.447997 cumulative IPC: 1.07168 (Simulation time: 0 hr 25 min 1 sec) 
Heartbeat CPU 0 instructions: 900000002 cycles: 777829334 heartbeat IPC: 1.38864 cumulative IPC: 1.07475 (Simulation time: 0 hr 25 min 17 sec) 
Heartbeat CPU 0 instructions: 910000000 cycles: 783685642 heartbeat IPC: 1.70756 cumulative IPC: 1.07969 (Simulation time: 0 hr 25 min 33 sec) 
Heartbeat CPU 0 instructions: 920000001 cycles: 789485668 heartbeat IPC: 1.72413 cumulative IPC: 1.08463 (Simulation time: 0 hr 25 min 49 sec) 
Heartbeat CPU 0 instructions: 930000001 cycles: 797270223 heartbeat IPC: 1.28459 cumulative IPC: 1.08667 (Simulation time: 0 hr 26 min 4 sec) 
Heartbeat CPU 0 instructions: 940000000 cycles: 805868123 heartbeat IPC: 1.16307 cumulative IPC: 1.08752 (Simulation time: 0 hr 26 min 18 sec) 
Heartbeat CPU 0 instructions: 950000003 cycles: 814069225 heartbeat IPC: 1.21935 cumulative IPC: 1.08891 (Simulation time: 0 hr 26 min 32 sec) 
Heartbeat CPU 0 instructions: 960000001 cycles: 822179858 heartbeat IPC: 1.23295 cumulative IPC: 1.09039 (Simulation time: 0 hr 26 min 46 sec) 
Heartbeat CPU 0 instructions: 970000000 cycles: 830517918 heartbeat IPC: 1.19932 cumulative IPC: 1.09153 (Simulation time: 0 hr 27 min 2 sec) 
Heartbeat CPU 0 instructions: 980000002 cycles: 840387421 heartbeat IPC: 1.01322 cumulative IPC: 1.09057 (Simulation time: 0 hr 27 min 17 sec) 
Heartbeat CPU 0 instructions: 990000000 cycles: 862662509 heartbeat IPC: 0.448932 cumulative IPC: 1.07333 (Simulation time: 0 hr 27 min 45 sec) 
Heartbeat CPU 0 instructions: 1000000000 cycles: 869183946 heartbeat IPC: 1.5334 cumulative IPC: 1.07692 (Simulation time: 0 hr 28 min 1 sec) 
Heartbeat CPU 0 instructions: 1010000000 cycles: 875006019 heartbeat IPC: 1.7176 cumulative IPC: 1.08136 (Simulation time: 0 hr 28 min 18 sec) 
Heartbeat CPU 0 instructions: 1020000000 cycles: 881032601 heartbeat IPC: 1.65932 cumulative IPC: 1.08547 (Simulation time: 0 hr 28 min 33 sec) 
Heartbeat CPU 0 instructions: 1030000002 cycles: 889443447 heartbeat IPC: 1.18894 cumulative IPC: 1.08648 (Simulation time: 0 hr 28 min 47 sec) 
Heartbeat CPU 0 instructions: 1040000000 cycles: 897023061 heartbeat IPC: 1.31933 cumulative IPC: 1.08853 (Simulation time: 0 hr 29 min 1 sec) 
Heartbeat CPU 0 instructions: 1050000001 cycles: 904698582 heartbeat IPC: 1.30284 cumulative IPC: 1.09041 (Simulation time: 0 hr 29 min 16 sec) 
Heartbeat CPU 0 instructions: 1060000003 cycles: 913496636 heartbeat IPC: 1.13662 cumulative IPC: 1.09088 (Simulation time: 0 hr 29 min 30 sec) 
Heartbeat CPU 0 instructions: 1070000002 cycles: 921994590 heartbeat IPC: 1.17675 cumulative IPC: 1.0917 (Simulation time: 0 hr 29 min 44 sec) 
Heartbeat CPU 0 instructions: 1080000003 cycles: 941697624 heartbeat IPC: 0.507536 cumulative IPC: 1.07902 (Simulation time: 0 hr 30 min 12 sec) 
Heartbeat CPU 0 instructions: 1090000003 cycles: 953682379 heartbeat IPC: 0.834393 cumulative IPC: 1.07584 (Simulation time: 0 hr 30 min 29 sec) 
Heartbeat CPU 0 instructions: 1100000000 cycles: 959638300 heartbeat IPC: 1.679 cumulative IPC: 1.07972 (Simulation time: 0 hr 30 min 45 sec) 
Finished CPU 0 instructions: 1000000003 cycles: 926168201 cumulative IPC: 1.07972 (Simulation time: 0 hr 30 min 45 sec) 

ChampSim completed all CPUs

Region of Interest Statistics

CPU 0 cumulative IPC: 1.07972 instructions: 1000000003 cycles: 926168201
L1D TOTAL     ACCESS:  210122176  HIT:  199908436  MISS:   10213740
L1D LOAD      ACCESS:  126594972  HIT:  123127468  MISS:    3467504
L1D RFO       ACCESS:   83527204  HIT:   76780968  MISS:    6746236
L1D PREFETCH  ACCESS:          0  HIT:          0  MISS:          0
L1D WRITEBACK ACCESS:          0  HIT:          0  MISS:          0
L1D PREFETCH  REQUESTED:          0  ISSUED:          0  USEFUL:          0  USELESS:          0
L1D AVERAGE MISS LATENCY: 313.616 cycles
L1I TOTAL     ACCESS:  166917884  HIT:  166509677  MISS:     408207
L1I LOAD      ACCESS:  166917884  HIT:  166509677  MISS:     408207
L1I RFO       ACCESS:          0  HIT:          0  MISS:          0
L1I PREFETCH  ACCESS:          0  HIT:          0  MISS:          0
L1I WRITEBACK ACCESS:          0  HIT:          0  MISS:          0
L1I PREFETCH  REQUESTED:          0  ISSUED:          0  USEFUL:          0  USELESS:          0
L1I AVERAGE MISS LATENCY: 73.4529 cycles
L2C TOTAL     ACCESS:   17800545  HIT:   11256660  MISS:    6543885
L2C LOAD      ACCESS:    3875507  HIT:    2846010  MISS:    1029497
L2C RFO       ACCESS:    6746154  HIT:    1234067  MISS:    5512087
L2C PREFETCH  ACCESS:          0  HIT:          0  MISS:          0
L2C WRITEBACK ACCESS:    7178884  HIT:    7176583  MISS:       2301
L2C PREFETCH  REQUESTED:          0  ISSUED:          0  USEFUL:          0  USELESS:          0
L2C AVERAGE MISS LATENCY: 473.363 cycles
LLC TOTAL     ACCESS:   12221921  HIT:    6051858  MISS:    6170063
LLC LOAD      ACCESS:    1029472  HIT:     653825  MISS:     375647
LLC RFO       ACCESS:    5512045  HIT:     359395  MISS:    5152650
LLC PREFETCH  ACCESS:          0  HIT:          0  MISS:          0
LLC WRITEBACK ACCESS:    5680404  HIT:    5038638  MISS:     641766
LLC PREFETCH  REQUESTED:          0  ISSUED:          0  USEFUL:          0  USELESS:          0
LLC AVERAGE MISS LATENCY: 455.983 cycles
Major fault: 0 Minor fault: 7146

DRAM Statistics
 CHANNEL 0
 RQ ROW_BUFFER_HIT:    2160713  ROW_BUFFER_MISS:    3367571
 DBUS_CONGESTED:    8142953
 WQ ROW_BUFFER_HIT:    1800392  ROW_BUFFER_MISS:    3401630  FULL:     411357

 AVG_CONGESTED_CYCLE: 6

CPU 0 Branch Prediction Accuracy: 93.7395% MPKI: 8.37522 Average ROB Occupancy at Mispredict: 31.8228

Branch types
NOT_BRANCH: 866220376 86.622%
BRANCH_DIRECT_JUMP: 7799639 0.779964%
BRANCH_INDIRECT: 50546 0.0050546%
BRANCH_CONDITIONAL: 115170924 11.5171%
BRANCH_DIRECT_CALL: 5379115 0.537911%
BRANCH_INDIRECT_CALL: 0 0%
BRANCH_RETURN: 5379110 0.537911%
BRANCH_OTHER: 0 0%

