
*** ChampSim Multicore Out-of-Order Simulator ***

Warmup Instructions: 100000000
Simulation Instructions: 1000000000
Number of CPUs: 1
LLC sets: 2048
LLC ways: 16
Off-chip DRAM Size: 4096 MB Channels: 1 Width: 64-bit Data Rate: 3200 MT/s

CPU 0 runs /scratch/user/kevin.weston/dpc3-traces/627.champsimtrace.xz
CPU 0 Bimodal branch predictor
Initialize DRRIP state
Assign rand_sets[0]: 454  LLC: 2048
rand_sets[0]: 454
Assign rand_sets[1]: 1662  LLC: 2048
rand_sets[1]: 1662
Assign rand_sets[2]: 1921  LLC: 2048
rand_sets[2]: 1921
Assign rand_sets[3]: 1131  LLC: 2048
rand_sets[3]: 1131
Assign rand_sets[4]: 331  LLC: 2048
rand_sets[4]: 331
Assign rand_sets[5]: 1531  LLC: 2048
rand_sets[5]: 1531
Assign rand_sets[6]: 482  LLC: 2048
rand_sets[6]: 482
Assign rand_sets[7]: 1275  LLC: 2048
rand_sets[7]: 1275
Assign rand_sets[8]: 1876  LLC: 2048
rand_sets[8]: 1876
Assign rand_sets[9]: 2038  LLC: 2048
rand_sets[9]: 2038
Assign rand_sets[10]: 701  LLC: 2048
rand_sets[10]: 701
Assign rand_sets[11]: 479  LLC: 2048
rand_sets[11]: 479
Assign rand_sets[12]: 892  LLC: 2048
rand_sets[12]: 892
Assign rand_sets[13]: 1820  LLC: 2048
rand_sets[13]: 1820
Assign rand_sets[14]: 1505  LLC: 2048
rand_sets[14]: 1505
Assign rand_sets[15]: 1159  LLC: 2048
rand_sets[15]: 1159
Assign rand_sets[16]: 513  LLC: 2048
rand_sets[16]: 513
Assign rand_sets[17]: 703  LLC: 2048
rand_sets[17]: 703
Assign rand_sets[18]: 561  LLC: 2048
rand_sets[18]: 561
Assign rand_sets[19]: 990  LLC: 2048
rand_sets[19]: 990
Assign rand_sets[20]: 342  LLC: 2048
rand_sets[20]: 342
Assign rand_sets[21]: 882  LLC: 2048
rand_sets[21]: 882
Assign rand_sets[22]: 15  LLC: 2048
rand_sets[22]: 15
Assign rand_sets[23]: 71  LLC: 2048
rand_sets[23]: 71
Assign rand_sets[24]: 1127  LLC: 2048
rand_sets[24]: 1127
Assign rand_sets[25]: 1382  LLC: 2048
rand_sets[25]: 1382
Assign rand_sets[26]: 647  LLC: 2048
rand_sets[26]: 647
Assign rand_sets[27]: 857  LLC: 2048
rand_sets[27]: 857
Assign rand_sets[28]: 1450  LLC: 2048
rand_sets[28]: 1450
Assign rand_sets[29]: 1160  LLC: 2048
rand_sets[29]: 1160
Assign rand_sets[30]: 1852  LLC: 2048
rand_sets[30]: 1852
Assign rand_sets[31]: 1881  LLC: 2048
rand_sets[31]: 1881
Assign rand_sets[32]: 1770  LLC: 2048
rand_sets[32]: 1770
Assign rand_sets[33]: 1622  LLC: 2048
rand_sets[33]: 1622
Assign rand_sets[34]: 275  LLC: 2048
rand_sets[34]: 275
Assign rand_sets[35]: 635  LLC: 2048
rand_sets[35]: 635
Assign rand_sets[36]: 466  LLC: 2048
rand_sets[36]: 466
Assign rand_sets[37]: 1413  LLC: 2048
rand_sets[37]: 1413
Assign rand_sets[38]: 417  LLC: 2048
rand_sets[38]: 417
Assign rand_sets[39]: 472  LLC: 2048
rand_sets[39]: 472
Assign rand_sets[40]: 1340  LLC: 2048
rand_sets[40]: 1340
Assign rand_sets[41]: 852  LLC: 2048
rand_sets[41]: 852
Assign rand_sets[42]: 1365  LLC: 2048
rand_sets[42]: 1365
Assign rand_sets[43]: 47  LLC: 2048
rand_sets[43]: 47
Assign rand_sets[44]: 823  LLC: 2048
rand_sets[44]: 823
Assign rand_sets[45]: 686  LLC: 2048
rand_sets[45]: 686
Assign rand_sets[46]: 1637  LLC: 2048
rand_sets[46]: 1637
Assign rand_sets[47]: 1115  LLC: 2048
rand_sets[47]: 1115
Assign rand_sets[48]: 986  LLC: 2048
rand_sets[48]: 986
Assign rand_sets[49]: 258  LLC: 2048
rand_sets[49]: 258
Assign rand_sets[50]: 633  LLC: 2048
rand_sets[50]: 633
Assign rand_sets[51]: 920  LLC: 2048
rand_sets[51]: 920
Assign rand_sets[52]: 204  LLC: 2048
rand_sets[52]: 204
Assign rand_sets[53]: 227  LLC: 2048
rand_sets[53]: 227
Assign rand_sets[54]: 1818  LLC: 2048
rand_sets[54]: 1818
Assign rand_sets[55]: 886  LLC: 2048
rand_sets[55]: 886
Assign rand_sets[56]: 1422  LLC: 2048
rand_sets[56]: 1422
Assign rand_sets[57]: 607  LLC: 2048
rand_sets[57]: 607
Assign rand_sets[58]: 217  LLC: 2048
rand_sets[58]: 217
Assign rand_sets[59]: 1945  LLC: 2048
rand_sets[59]: 1945
Assign rand_sets[60]: 143  LLC: 2048
rand_sets[60]: 143
Assign rand_sets[61]: 1311  LLC: 2048
rand_sets[61]: 1311
Assign rand_sets[62]: 319  LLC: 2048
rand_sets[62]: 319
Assign rand_sets[63]: 1846  LLC: 2048
rand_sets[63]: 1846
Heartbeat CPU 0 instructions: 10000003 cycles: 3428469 heartbeat IPC: 2.91675 cumulative IPC: 2.91675 (Simulation time: 0 hr 0 min 17 sec) 
Heartbeat CPU 0 instructions: 20000001 cycles: 6666101 heartbeat IPC: 3.08868 cumulative IPC: 3.00025 (Simulation time: 0 hr 0 min 37 sec) 
Heartbeat CPU 0 instructions: 30000003 cycles: 9897196 heartbeat IPC: 3.09493 cumulative IPC: 3.03116 (Simulation time: 0 hr 0 min 57 sec) 
Heartbeat CPU 0 instructions: 40000003 cycles: 13067214 heartbeat IPC: 3.15456 cumulative IPC: 3.0611 (Simulation time: 0 hr 1 min 16 sec) 
Heartbeat CPU 0 instructions: 50000002 cycles: 16395589 heartbeat IPC: 3.00447 cumulative IPC: 3.0496 (Simulation time: 0 hr 1 min 36 sec) 
Heartbeat CPU 0 instructions: 60000003 cycles: 19756902 heartbeat IPC: 2.97503 cumulative IPC: 3.03691 (Simulation time: 0 hr 1 min 57 sec) 
Heartbeat CPU 0 instructions: 70000002 cycles: 23051622 heartbeat IPC: 3.03516 cumulative IPC: 3.03666 (Simulation time: 0 hr 2 min 16 sec) 
Heartbeat CPU 0 instructions: 80000002 cycles: 26415144 heartbeat IPC: 2.97307 cumulative IPC: 3.02857 (Simulation time: 0 hr 2 min 35 sec) 
Heartbeat CPU 0 instructions: 90000001 cycles: 29972575 heartbeat IPC: 2.81102 cumulative IPC: 3.00275 (Simulation time: 0 hr 2 min 55 sec) 
Heartbeat CPU 0 instructions: 100000001 cycles: 33470008 heartbeat IPC: 2.85924 cumulative IPC: 2.98775 (Simulation time: 0 hr 3 min 15 sec) 

Warmup complete CPU 0 instructions: 100000001 cycles: 33470008 (Simulation time: 0 hr 3 min 15 sec) 

Heartbeat CPU 0 instructions: 110000000 cycles: 54743835 heartbeat IPC: 0.470061 cumulative IPC: 0.470061 (Simulation time: 0 hr 3 min 42 sec) 
Heartbeat CPU 0 instructions: 120000002 cycles: 61166044 heartbeat IPC: 1.5571 cumulative IPC: 0.722125 (Simulation time: 0 hr 3 min 59 sec) 
Heartbeat CPU 0 instructions: 130000000 cycles: 67011227 heartbeat IPC: 1.71081 cumulative IPC: 0.894422 (Simulation time: 0 hr 4 min 15 sec) 
Heartbeat CPU 0 instructions: 140000001 cycles: 72837855 heartbeat IPC: 1.71626 cumulative IPC: 1.01606 (Simulation time: 0 hr 4 min 31 sec) 
Heartbeat CPU 0 instructions: 150000001 cycles: 80643096 heartbeat IPC: 1.28119 cumulative IPC: 1.05993 (Simulation time: 0 hr 4 min 45 sec) 
Heartbeat CPU 0 instructions: 160000001 cycles: 89227010 heartbeat IPC: 1.16497 cumulative IPC: 1.0761 (Simulation time: 0 hr 5 min 0 sec) 
Heartbeat CPU 0 instructions: 170000001 cycles: 97597908 heartbeat IPC: 1.19462 cumulative IPC: 1.09157 (Simulation time: 0 hr 5 min 14 sec) 
Heartbeat CPU 0 instructions: 180000001 cycles: 105692046 heartbeat IPC: 1.23546 cumulative IPC: 1.1077 (Simulation time: 0 hr 5 min 28 sec) 
Heartbeat CPU 0 instructions: 190000000 cycles: 114079994 heartbeat IPC: 1.19219 cumulative IPC: 1.11649 (Simulation time: 0 hr 5 min 44 sec) 
Heartbeat CPU 0 instructions: 200000003 cycles: 124000428 heartbeat IPC: 1.00802 cumulative IPC: 1.1046 (Simulation time: 0 hr 5 min 59 sec) 
Heartbeat CPU 0 instructions: 210000000 cycles: 145967107 heartbeat IPC: 0.455235 cumulative IPC: 0.977803 (Simulation time: 0 hr 6 min 27 sec) 
Heartbeat CPU 0 instructions: 220000000 cycles: 152795772 heartbeat IPC: 1.46442 cumulative IPC: 1.00565 (Simulation time: 0 hr 6 min 43 sec) 
Heartbeat CPU 0 instructions: 230000003 cycles: 158620378 heartbeat IPC: 1.71685 cumulative IPC: 1.03875 (Simulation time: 0 hr 7 min 0 sec) 
Heartbeat CPU 0 instructions: 240000001 cycles: 164416048 heartbeat IPC: 1.72543 cumulative IPC: 1.06914 (Simulation time: 0 hr 7 min 16 sec) 
Heartbeat CPU 0 instructions: 250000000 cycles: 171472622 heartbeat IPC: 1.41712 cumulative IPC: 1.08694 (Simulation time: 0 hr 7 min 31 sec) 
Heartbeat CPU 0 instructions: 260000002 cycles: 179924261 heartbeat IPC: 1.1832 cumulative IPC: 1.09249 (Simulation time: 0 hr 7 min 45 sec) 
Heartbeat CPU 0 instructions: 270000000 cycles: 188308662 heartbeat IPC: 1.19269 cumulative IPC: 1.09792 (Simulation time: 0 hr 7 min 59 sec) 
Heartbeat CPU 0 instructions: 280000002 cycles: 195573896 heartbeat IPC: 1.37642 cumulative IPC: 1.1104 (Simulation time: 0 hr 8 min 14 sec) 
Heartbeat CPU 0 instructions: 290000003 cycles: 204543780 heartbeat IPC: 1.11484 cumulative IPC: 1.11063 (Simulation time: 0 hr 8 min 29 sec) 
Heartbeat CPU 0 instructions: 300000003 cycles: 213929431 heartbeat IPC: 1.06546 cumulative IPC: 1.10828 (Simulation time: 0 hr 8 min 44 sec) 
Heartbeat CPU 0 instructions: 310000000 cycles: 236091643 heartbeat IPC: 0.451218 cumulative IPC: 1.03641 (Simulation time: 0 hr 9 min 13 sec) 
Heartbeat CPU 0 instructions: 320000000 cycles: 244026670 heartbeat IPC: 1.26024 cumulative IPC: 1.04485 (Simulation time: 0 hr 9 min 28 sec) 
Heartbeat CPU 0 instructions: 330000000 cycles: 249878324 heartbeat IPC: 1.70892 cumulative IPC: 1.06281 (Simulation time: 0 hr 9 min 45 sec) 
Heartbeat CPU 0 instructions: 340000000 cycles: 255650529 heartbeat IPC: 1.73244 cumulative IPC: 1.0802 (Simulation time: 0 hr 10 min 1 sec) 
Heartbeat CPU 0 instructions: 350000000 cycles: 261882492 heartbeat IPC: 1.60463 cumulative IPC: 1.09451 (Simulation time: 0 hr 10 min 16 sec) 
Heartbeat CPU 0 instructions: 360000000 cycles: 269494469 heartbeat IPC: 1.31372 cumulative IPC: 1.10158 (Simulation time: 0 hr 10 min 31 sec) 
Heartbeat CPU 0 instructions: 370000000 cycles: 278077941 heartbeat IPC: 1.16503 cumulative IPC: 1.10381 (Simulation time: 0 hr 10 min 45 sec) 
Heartbeat CPU 0 instructions: 380000000 cycles: 286013289 heartbeat IPC: 1.26018 cumulative IPC: 1.10872 (Simulation time: 0 hr 10 min 59 sec) 
Heartbeat CPU 0 instructions: 390000000 cycles: 294402452 heartbeat IPC: 1.19201 cumulative IPC: 1.1114 (Simulation time: 0 hr 11 min 14 sec) 
Heartbeat CPU 0 instructions: 400000000 cycles: 302620007 heartbeat IPC: 1.21691 cumulative IPC: 1.11462 (Simulation time: 0 hr 11 min 29 sec) 
Heartbeat CPU 0 instructions: 410000001 cycles: 314928068 heartbeat IPC: 0.812476 cumulative IPC: 1.10141 (Simulation time: 0 hr 11 min 47 sec) 
Heartbeat CPU 0 instructions: 420000001 cycles: 334539424 heartbeat IPC: 0.509909 cumulative IPC: 1.06288 (Simulation time: 0 hr 12 min 12 sec) 
Heartbeat CPU 0 instructions: 430000003 cycles: 340779407 heartbeat IPC: 1.60257 cumulative IPC: 1.07384 (Simulation time: 0 hr 12 min 29 sec) 
Heartbeat CPU 0 instructions: 440000000 cycles: 346605304 heartbeat IPC: 1.71647 cumulative IPC: 1.08579 (Simulation time: 0 hr 12 min 46 sec) 
Heartbeat CPU 0 instructions: 450000000 cycles: 352496637 heartbeat IPC: 1.69741 cumulative IPC: 1.09709 (Simulation time: 0 hr 13 min 1 sec) 
Heartbeat CPU 0 instructions: 460000000 cycles: 360027542 heartbeat IPC: 1.32786 cumulative IPC: 1.10241 (Simulation time: 0 hr 13 min 16 sec) 
Heartbeat CPU 0 instructions: 470000001 cycles: 368515103 heartbeat IPC: 1.17819 cumulative IPC: 1.10433 (Simulation time: 0 hr 13 min 30 sec) 
Heartbeat CPU 0 instructions: 480000001 cycles: 376678970 heartbeat IPC: 1.22491 cumulative IPC: 1.1072 (Simulation time: 0 hr 13 min 45 sec) 
Heartbeat CPU 0 instructions: 490000003 cycles: 384864893 heartbeat IPC: 1.22161 cumulative IPC: 1.10986 (Simulation time: 0 hr 13 min 59 sec) 
Heartbeat CPU 0 instructions: 500000001 cycles: 393126287 heartbeat IPC: 1.21045 cumulative IPC: 1.11217 (Simulation time: 0 hr 14 min 14 sec) 
Heartbeat CPU 0 instructions: 510000001 cycles: 403404268 heartbeat IPC: 0.972954 cumulative IPC: 1.1083 (Simulation time: 0 hr 14 min 30 sec) 
Heartbeat CPU 0 instructions: 520000001 cycles: 425137093 heartbeat IPC: 0.460133 cumulative IPC: 1.07234 (Simulation time: 0 hr 14 min 58 sec) 
Heartbeat CPU 0 instructions: 530000001 cycles: 431387854 heartbeat IPC: 1.59981 cumulative IPC: 1.08063 (Simulation time: 0 hr 15 min 14 sec) 
Heartbeat CPU 0 instructions: 540000000 cycles: 437208124 heartbeat IPC: 1.71813 cumulative IPC: 1.08982 (Simulation time: 0 hr 15 min 31 sec) 
Heartbeat CPU 0 instructions: 550000000 cycles: 443116045 heartbeat IPC: 1.69264 cumulative IPC: 1.09851 (Simulation time: 0 hr 15 min 46 sec) 
Heartbeat CPU 0 instructions: 560000000 cycles: 450347557 heartbeat IPC: 1.38284 cumulative IPC: 1.10344 (Simulation time: 0 hr 16 min 1 sec) 
Heartbeat CPU 0 instructions: 570000000 cycles: 458577622 heartbeat IPC: 1.21506 cumulative IPC: 1.1056 (Simulation time: 0 hr 16 min 15 sec) 
Heartbeat CPU 0 instructions: 580000001 cycles: 466839551 heartbeat IPC: 1.21037 cumulative IPC: 1.1076 (Simulation time: 0 hr 16 min 30 sec) 
Heartbeat CPU 0 instructions: 590000000 cycles: 474986532 heartbeat IPC: 1.22745 cumulative IPC: 1.10981 (Simulation time: 0 hr 16 min 44 sec) 
Heartbeat CPU 0 instructions: 600000002 cycles: 483466953 heartbeat IPC: 1.17919 cumulative IPC: 1.11112 (Simulation time: 0 hr 16 min 59 sec) 
Heartbeat CPU 0 instructions: 610000003 cycles: 493449440 heartbeat IPC: 1.00175 cumulative IPC: 1.10875 (Simulation time: 0 hr 17 min 15 sec) 
Heartbeat CPU 0 instructions: 620000002 cycles: 515227637 heartbeat IPC: 0.459175 cumulative IPC: 1.07938 (Simulation time: 0 hr 17 min 42 sec) 
Heartbeat CPU 0 instructions: 630000000 cycles: 521629934 heartbeat IPC: 1.56194 cumulative IPC: 1.08571 (Simulation time: 0 hr 17 min 59 sec) 
Heartbeat CPU 0 instructions: 640000002 cycles: 527477611 heartbeat IPC: 1.71008 cumulative IPC: 1.0931 (Simulation time: 0 hr 18 min 16 sec) 
Heartbeat CPU 0 instructions: 650000000 cycles: 533983120 heartbeat IPC: 1.53716 cumulative IPC: 1.09887 (Simulation time: 0 hr 18 min 31 sec) 
Heartbeat CPU 0 instructions: 660000000 cycles: 542468167 heartbeat IPC: 1.17854 cumulative IPC: 1.1002 (Simulation time: 0 hr 18 min 45 sec) 
Heartbeat CPU 0 instructions: 670000000 cycles: 551074948 heartbeat IPC: 1.16187 cumulative IPC: 1.10123 (Simulation time: 0 hr 18 min 59 sec) 
Heartbeat CPU 0 instructions: 680000000 cycles: 558709575 heartbeat IPC: 1.30982 cumulative IPC: 1.10426 (Simulation time: 0 hr 19 min 13 sec) 
Heartbeat CPU 0 instructions: 690000002 cycles: 567320035 heartbeat IPC: 1.16138 cumulative IPC: 1.10518 (Simulation time: 0 hr 19 min 28 sec) 
Heartbeat CPU 0 instructions: 700000001 cycles: 577333419 heartbeat IPC: 0.998663 cumulative IPC: 1.10322 (Simulation time: 0 hr 19 min 44 sec) 
Heartbeat CPU 0 instructions: 710000001 cycles: 599251599 heartbeat IPC: 0.456242 cumulative IPC: 1.07815 (Simulation time: 0 hr 20 min 12 sec) 
Heartbeat CPU 0 instructions: 720000003 cycles: 606021018 heartbeat IPC: 1.47723 cumulative IPC: 1.08287 (Simulation time: 0 hr 20 min 28 sec) 
Heartbeat CPU 0 instructions: 730000000 cycles: 611940770 heartbeat IPC: 1.68926 cumulative IPC: 1.08908 (Simulation time: 0 hr 20 min 45 sec) 
Heartbeat CPU 0 instructions: 740000002 cycles: 618769912 heartbeat IPC: 1.46431 cumulative IPC: 1.09346 (Simulation time: 0 hr 21 min 0 sec) 
Heartbeat CPU 0 instructions: 750000002 cycles: 626840393 heartbeat IPC: 1.23908 cumulative IPC: 1.09544 (Simulation time: 0 hr 21 min 14 sec) 
Heartbeat CPU 0 instructions: 760000000 cycles: 635358226 heartbeat IPC: 1.17401 cumulative IPC: 1.09655 (Simulation time: 0 hr 21 min 28 sec) 
Heartbeat CPU 0 instructions: 770000000 cycles: 643028567 heartbeat IPC: 1.30372 cumulative IPC: 1.09916 (Simulation time: 0 hr 21 min 43 sec) 
Heartbeat CPU 0 instructions: 780000003 cycles: 651717901 heartbeat IPC: 1.15084 cumulative IPC: 1.09988 (Simulation time: 0 hr 21 min 58 sec) 
Heartbeat CPU 0 instructions: 790000000 cycles: 661236861 heartbeat IPC: 1.05053 cumulative IPC: 1.09913 (Simulation time: 0 hr 22 min 13 sec) 
Heartbeat CPU 0 instructions: 800000000 cycles: 683490392 heartbeat IPC: 0.449367 cumulative IPC: 1.07689 (Simulation time: 0 hr 22 min 41 sec) 
Heartbeat CPU 0 instructions: 810000003 cycles: 690471017 heartbeat IPC: 1.43254 cumulative IPC: 1.08067 (Simulation time: 0 hr 22 min 57 sec) 
Heartbeat CPU 0 instructions: 820000002 cycles: 696300572 heartbeat IPC: 1.7154 cumulative IPC: 1.08625 (Simulation time: 0 hr 23 min 14 sec) 
Heartbeat CPU 0 instructions: 830000001 cycles: 703468506 heartbeat IPC: 1.3951 cumulative IPC: 1.08955 (Simulation time: 0 hr 23 min 29 sec) 
Heartbeat CPU 0 instructions: 840000000 cycles: 711024633 heartbeat IPC: 1.32343 cumulative IPC: 1.09216 (Simulation time: 0 hr 23 min 43 sec) 
Heartbeat CPU 0 instructions: 850000001 cycles: 719514256 heartbeat IPC: 1.17791 cumulative IPC: 1.09322 (Simulation time: 0 hr 23 min 57 sec) 
Heartbeat CPU 0 instructions: 860000002 cycles: 726862144 heartbeat IPC: 1.36094 cumulative IPC: 1.09606 (Simulation time: 0 hr 24 min 12 sec) 
Heartbeat CPU 0 instructions: 870000000 cycles: 735828892 heartbeat IPC: 1.11523 cumulative IPC: 1.09631 (Simulation time: 0 hr 24 min 26 sec) 
Heartbeat CPU 0 instructions: 880000000 cycles: 745440646 heartbeat IPC: 1.04039 cumulative IPC: 1.09555 (Simulation time: 0 hr 24 min 41 sec) 
Heartbeat CPU 0 instructions: 890000000 cycles: 767561196 heartbeat IPC: 0.452068 cumulative IPC: 1.07616 (Simulation time: 0 hr 25 min 10 sec) 
Heartbeat CPU 0 instructions: 900000002 cycles: 774758794 heartbeat IPC: 1.38935 cumulative IPC: 1.0792 (Simulation time: 0 hr 25 min 25 sec) 
Heartbeat CPU 0 instructions: 910000000 cycles: 780609897 heartbeat IPC: 1.70908 cumulative IPC: 1.08413 (Simulation time: 0 hr 25 min 42 sec) 
Heartbeat CPU 0 instructions: 920000001 cycles: 786397576 heartbeat IPC: 1.72781 cumulative IPC: 1.08908 (Simulation time: 0 hr 25 min 58 sec) 
Heartbeat CPU 0 instructions: 930000001 cycles: 794152773 heartbeat IPC: 1.28946 cumulative IPC: 1.09113 (Simulation time: 0 hr 26 min 12 sec) 
Heartbeat CPU 0 instructions: 940000000 cycles: 802757469 heartbeat IPC: 1.16216 cumulative IPC: 1.09192 (Simulation time: 0 hr 26 min 26 sec) 
Heartbeat CPU 0 instructions: 950000003 cycles: 810950992 heartbeat IPC: 1.22048 cumulative IPC: 1.09327 (Simulation time: 0 hr 26 min 41 sec) 
Heartbeat CPU 0 instructions: 960000001 cycles: 819012103 heartbeat IPC: 1.24052 cumulative IPC: 1.09479 (Simulation time: 0 hr 26 min 57 sec) 
Heartbeat CPU 0 instructions: 970000000 cycles: 827344289 heartbeat IPC: 1.20017 cumulative IPC: 1.09589 (Simulation time: 0 hr 27 min 13 sec) 
Heartbeat CPU 0 instructions: 980000002 cycles: 837199050 heartbeat IPC: 1.01474 cumulative IPC: 1.0949 (Simulation time: 0 hr 27 min 29 sec) 
Heartbeat CPU 0 instructions: 990000000 cycles: 859249266 heartbeat IPC: 0.45351 cumulative IPC: 1.07777 (Simulation time: 0 hr 27 min 57 sec) 
Heartbeat CPU 0 instructions: 1000000000 cycles: 865765697 heartbeat IPC: 1.53458 cumulative IPC: 1.08135 (Simulation time: 0 hr 28 min 14 sec) 
Heartbeat CPU 0 instructions: 1010000000 cycles: 871581675 heartbeat IPC: 1.7194 cumulative IPC: 1.08577 (Simulation time: 0 hr 28 min 31 sec) 
Heartbeat CPU 0 instructions: 1020000000 cycles: 877592717 heartbeat IPC: 1.66361 cumulative IPC: 1.08989 (Simulation time: 0 hr 28 min 46 sec) 
Heartbeat CPU 0 instructions: 1030000002 cycles: 885981148 heartbeat IPC: 1.19212 cumulative IPC: 1.09089 (Simulation time: 0 hr 29 min 1 sec) 
Heartbeat CPU 0 instructions: 1040000000 cycles: 893552612 heartbeat IPC: 1.32075 cumulative IPC: 1.09292 (Simulation time: 0 hr 29 min 15 sec) 
Heartbeat CPU 0 instructions: 1050000001 cycles: 901224995 heartbeat IPC: 1.30338 cumulative IPC: 1.09478 (Simulation time: 0 hr 29 min 30 sec) 
Heartbeat CPU 0 instructions: 1060000003 cycles: 909966746 heartbeat IPC: 1.14394 cumulative IPC: 1.09527 (Simulation time: 0 hr 29 min 46 sec) 
Heartbeat CPU 0 instructions: 1070000002 cycles: 918464494 heartbeat IPC: 1.17678 cumulative IPC: 1.09605 (Simulation time: 0 hr 30 min 0 sec) 
Heartbeat CPU 0 instructions: 1080000003 cycles: 938004253 heartbeat IPC: 0.511777 cumulative IPC: 1.08343 (Simulation time: 0 hr 30 min 28 sec) 
Heartbeat CPU 0 instructions: 1090000003 cycles: 949903051 heartbeat IPC: 0.840421 cumulative IPC: 1.08028 (Simulation time: 0 hr 30 min 46 sec) 
Heartbeat CPU 0 instructions: 1100000000 cycles: 955853361 heartbeat IPC: 1.68058 cumulative IPC: 1.08415 (Simulation time: 0 hr 31 min 3 sec) 
Finished CPU 0 instructions: 1000000003 cycles: 922383360 cumulative IPC: 1.08415 (Simulation time: 0 hr 31 min 3 sec) 

ChampSim completed all CPUs

Region of Interest Statistics

CPU 0 cumulative IPC: 1.08415 instructions: 1000000003 cycles: 922383360
L1D TOTAL     ACCESS:  210118627  HIT:  199904929  MISS:   10213698
L1D LOAD      ACCESS:  126599441  HIT:  123131979  MISS:    3467462
L1D RFO       ACCESS:   83519186  HIT:   76772950  MISS:    6746236
L1D PREFETCH  ACCESS:          0  HIT:          0  MISS:          0
L1D WRITEBACK ACCESS:          0  HIT:          0  MISS:          0
L1D PREFETCH  REQUESTED:          0  ISSUED:          0  USEFUL:          0  USELESS:          0
L1D AVERAGE MISS LATENCY: 309.88 cycles
L1I TOTAL     ACCESS:  166952053  HIT:  166543846  MISS:     408207
L1I LOAD      ACCESS:  166952053  HIT:  166543846  MISS:     408207
L1I RFO       ACCESS:          0  HIT:          0  MISS:          0
L1I PREFETCH  ACCESS:          0  HIT:          0  MISS:          0
L1I WRITEBACK ACCESS:          0  HIT:          0  MISS:          0
L1I PREFETCH  REQUESTED:          0  ISSUED:          0  USEFUL:          0  USELESS:          0
L1I AVERAGE MISS LATENCY: 72.1287 cycles
L2C TOTAL     ACCESS:   17800505  HIT:   11268625  MISS:    6531880
L2C LOAD      ACCESS:    3875467  HIT:    2858065  MISS:    1017402
L2C RFO       ACCESS:    6746157  HIT:    1233637  MISS:    5512520
L2C PREFETCH  ACCESS:          0  HIT:          0  MISS:          0
L2C WRITEBACK ACCESS:    7178881  HIT:    7176923  MISS:       1958
L2C PREFETCH  REQUESTED:          0  ISSUED:          0  USEFUL:          0  USELESS:          0
L2C AVERAGE MISS LATENCY: 468.313 cycles
LLC TOTAL     ACCESS:   12208869  HIT:    6581391  MISS:    5627478
LLC LOAD      ACCESS:    1017371  HIT:     645737  MISS:     371634
LLC RFO       ACCESS:    5512506  HIT:     337318  MISS:    5175188
LLC PREFETCH  ACCESS:          0  HIT:          0  MISS:          0
LLC WRITEBACK ACCESS:    5678992  HIT:    5598336  MISS:      80656
LLC PREFETCH  REQUESTED:          0  ISSUED:          0  USEFUL:          0  USELESS:          0
LLC AVERAGE MISS LATENCY: 493.3 cycles
Major fault: 0 Minor fault: 7146

DRAM Statistics
 CHANNEL 0
 RQ ROW_BUFFER_HIT:    2082036  ROW_BUFFER_MISS:    3464758
 DBUS_CONGESTED:    8717743
 WQ ROW_BUFFER_HIT:    1882841  ROW_BUFFER_MISS:    3341308  FULL:          0

 AVG_CONGESTED_CYCLE: 6

CPU 0 Branch Prediction Accuracy: 93.7395% MPKI: 8.37522 Average ROB Occupancy at Mispredict: 31.8867

Branch types
NOT_BRANCH: 866220376 86.622%
BRANCH_DIRECT_JUMP: 7799639 0.779964%
BRANCH_INDIRECT: 50546 0.0050546%
BRANCH_CONDITIONAL: 115170924 11.5171%
BRANCH_DIRECT_CALL: 5379115 0.537911%
BRANCH_INDIRECT_CALL: 0 0%
BRANCH_RETURN: 5379110 0.537911%
BRANCH_OTHER: 0 0%

