
*** ChampSim Multicore Out-of-Order Simulator ***

Warmup Instructions: 100000000
Simulation Instructions: 1000000000
Number of CPUs: 1
LLC sets: 2048
LLC ways: 16
Off-chip DRAM Size: 4096 MB Channels: 1 Width: 64-bit Data Rate: 3200 MT/s

CPU 0 runs /scratch/user/kevin.weston/dpc3-traces/627.champsimtrace.xz
CPU 0 Bimodal branch predictor
Per-line RRPV Initialized
PRRIP State Initialized
Assign SAMPLER_SET[0]: 454  LLC: 2048
SAMPLER_SET[0]: 454
Assign SAMPLER_SET[1]: 1662  LLC: 2048
SAMPLER_SET[1]: 1662
Assign SAMPLER_SET[2]: 1921  LLC: 2048
SAMPLER_SET[2]: 1921
Assign SAMPLER_SET[3]: 1131  LLC: 2048
SAMPLER_SET[3]: 1131
Assign SAMPLER_SET[4]: 331  LLC: 2048
SAMPLER_SET[4]: 331
Assign SAMPLER_SET[5]: 1531  LLC: 2048
SAMPLER_SET[5]: 1531
Assign SAMPLER_SET[6]: 482  LLC: 2048
SAMPLER_SET[6]: 482
Assign SAMPLER_SET[7]: 1275  LLC: 2048
SAMPLER_SET[7]: 1275
Assign SAMPLER_SET[8]: 1876  LLC: 2048
SAMPLER_SET[8]: 1876
Assign SAMPLER_SET[9]: 2038  LLC: 2048
SAMPLER_SET[9]: 2038
Assign SAMPLER_SET[10]: 701  LLC: 2048
SAMPLER_SET[10]: 701
Assign SAMPLER_SET[11]: 479  LLC: 2048
SAMPLER_SET[11]: 479
Assign SAMPLER_SET[12]: 892  LLC: 2048
SAMPLER_SET[12]: 892
Assign SAMPLER_SET[13]: 1820  LLC: 2048
SAMPLER_SET[13]: 1820
Assign SAMPLER_SET[14]: 1505  LLC: 2048
SAMPLER_SET[14]: 1505
Assign SAMPLER_SET[15]: 1159  LLC: 2048
SAMPLER_SET[15]: 1159
Assign SAMPLER_SET[16]: 513  LLC: 2048
SAMPLER_SET[16]: 513
Assign SAMPLER_SET[17]: 703  LLC: 2048
SAMPLER_SET[17]: 703
Assign SAMPLER_SET[18]: 561  LLC: 2048
SAMPLER_SET[18]: 561
Assign SAMPLER_SET[19]: 990  LLC: 2048
SAMPLER_SET[19]: 990
Assign SAMPLER_SET[20]: 342  LLC: 2048
SAMPLER_SET[20]: 342
Assign SAMPLER_SET[21]: 882  LLC: 2048
SAMPLER_SET[21]: 882
Assign SAMPLER_SET[22]: 15  LLC: 2048
SAMPLER_SET[22]: 15
Assign SAMPLER_SET[23]: 71  LLC: 2048
SAMPLER_SET[23]: 71
Assign SAMPLER_SET[24]: 1127  LLC: 2048
SAMPLER_SET[24]: 1127
Assign SAMPLER_SET[25]: 1382  LLC: 2048
SAMPLER_SET[25]: 1382
Assign SAMPLER_SET[26]: 647  LLC: 2048
SAMPLER_SET[26]: 647
Assign SAMPLER_SET[27]: 857  LLC: 2048
SAMPLER_SET[27]: 857
Assign SAMPLER_SET[28]: 1450  LLC: 2048
SAMPLER_SET[28]: 1450
Assign SAMPLER_SET[29]: 1160  LLC: 2048
SAMPLER_SET[29]: 1160
Assign SAMPLER_SET[30]: 1852  LLC: 2048
SAMPLER_SET[30]: 1852
Assign SAMPLER_SET[31]: 1881  LLC: 2048
SAMPLER_SET[31]: 1881
Assign SAMPLER_SET[32]: 1770  LLC: 2048
SAMPLER_SET[32]: 1770
Assign SAMPLER_SET[33]: 1622  LLC: 2048
SAMPLER_SET[33]: 1622
Assign SAMPLER_SET[34]: 275  LLC: 2048
SAMPLER_SET[34]: 275
Assign SAMPLER_SET[35]: 635  LLC: 2048
SAMPLER_SET[35]: 635
Assign SAMPLER_SET[36]: 466  LLC: 2048
SAMPLER_SET[36]: 466
Assign SAMPLER_SET[37]: 1413  LLC: 2048
SAMPLER_SET[37]: 1413
Assign SAMPLER_SET[38]: 417  LLC: 2048
SAMPLER_SET[38]: 417
Assign SAMPLER_SET[39]: 472  LLC: 2048
SAMPLER_SET[39]: 472
Assign SAMPLER_SET[40]: 1340  LLC: 2048
SAMPLER_SET[40]: 1340
Assign SAMPLER_SET[41]: 852  LLC: 2048
SAMPLER_SET[41]: 852
Assign SAMPLER_SET[42]: 1365  LLC: 2048
SAMPLER_SET[42]: 1365
Assign SAMPLER_SET[43]: 47  LLC: 2048
SAMPLER_SET[43]: 47
Assign SAMPLER_SET[44]: 823  LLC: 2048
SAMPLER_SET[44]: 823
Assign SAMPLER_SET[45]: 686  LLC: 2048
SAMPLER_SET[45]: 686
Assign SAMPLER_SET[46]: 1637  LLC: 2048
SAMPLER_SET[46]: 1637
Assign SAMPLER_SET[47]: 1115  LLC: 2048
SAMPLER_SET[47]: 1115
Assign SAMPLER_SET[48]: 986  LLC: 2048
SAMPLER_SET[48]: 986
Assign SAMPLER_SET[49]: 258  LLC: 2048
SAMPLER_SET[49]: 258
Assign SAMPLER_SET[50]: 633  LLC: 2048
SAMPLER_SET[50]: 633
Assign SAMPLER_SET[51]: 920  LLC: 2048
SAMPLER_SET[51]: 920
Assign SAMPLER_SET[52]: 204  LLC: 2048
SAMPLER_SET[52]: 204
Assign SAMPLER_SET[53]: 227  LLC: 2048
SAMPLER_SET[53]: 227
Assign SAMPLER_SET[54]: 1818  LLC: 2048
SAMPLER_SET[54]: 1818
Assign SAMPLER_SET[55]: 886  LLC: 2048
SAMPLER_SET[55]: 886
Assign SAMPLER_SET[56]: 1422  LLC: 2048
SAMPLER_SET[56]: 1422
Assign SAMPLER_SET[57]: 607  LLC: 2048
SAMPLER_SET[57]: 607
Assign SAMPLER_SET[58]: 217  LLC: 2048
SAMPLER_SET[58]: 217
Assign SAMPLER_SET[59]: 1945  LLC: 2048
SAMPLER_SET[59]: 1945
Assign SAMPLER_SET[60]: 143  LLC: 2048
SAMPLER_SET[60]: 143
Assign SAMPLER_SET[61]: 1311  LLC: 2048
SAMPLER_SET[61]: 1311
Assign SAMPLER_SET[62]: 319  LLC: 2048
SAMPLER_SET[62]: 319
Assign SAMPLER_SET[63]: 1846  LLC: 2048
SAMPLER_SET[63]: 1846
Heartbeat CPU 0 instructions: 10000003 cycles: 3428585 heartbeat IPC: 2.91666 cumulative IPC: 2.91666 (Simulation time: 0 hr 0 min 18 sec) 
Heartbeat CPU 0 instructions: 20000001 cycles: 6666218 heartbeat IPC: 3.08868 cumulative IPC: 3.0002 (Simulation time: 0 hr 0 min 38 sec) 
Heartbeat CPU 0 instructions: 30000003 cycles: 9897335 heartbeat IPC: 3.09491 cumulative IPC: 3.03112 (Simulation time: 0 hr 0 min 58 sec) 
Heartbeat CPU 0 instructions: 40000003 cycles: 13067443 heartbeat IPC: 3.15447 cumulative IPC: 3.06104 (Simulation time: 0 hr 1 min 18 sec) 
Heartbeat CPU 0 instructions: 50000002 cycles: 16395873 heartbeat IPC: 3.00442 cumulative IPC: 3.04955 (Simulation time: 0 hr 1 min 38 sec) 
Heartbeat CPU 0 instructions: 60000003 cycles: 19757260 heartbeat IPC: 2.97496 cumulative IPC: 3.03686 (Simulation time: 0 hr 1 min 59 sec) 
Heartbeat CPU 0 instructions: 70000002 cycles: 23052005 heartbeat IPC: 3.03514 cumulative IPC: 3.03661 (Simulation time: 0 hr 2 min 19 sec) 
Heartbeat CPU 0 instructions: 80000002 cycles: 26415624 heartbeat IPC: 2.97299 cumulative IPC: 3.02851 (Simulation time: 0 hr 2 min 38 sec) 
Heartbeat CPU 0 instructions: 90000001 cycles: 29973070 heartbeat IPC: 2.81101 cumulative IPC: 3.0027 (Simulation time: 0 hr 2 min 57 sec) 
Heartbeat CPU 0 instructions: 100000001 cycles: 33470638 heartbeat IPC: 2.85913 cumulative IPC: 2.98769 (Simulation time: 0 hr 3 min 18 sec) 

Warmup complete CPU 0 instructions: 100000001 cycles: 33470638 (Simulation time: 0 hr 3 min 18 sec) 

Heartbeat CPU 0 instructions: 110000000 cycles: 53728622 heartbeat IPC: 0.493632 cumulative IPC: 0.493632 (Simulation time: 0 hr 3 min 44 sec) 
Heartbeat CPU 0 instructions: 120000002 cycles: 60131258 heartbeat IPC: 1.56186 cumulative IPC: 0.75017 (Simulation time: 0 hr 4 min 1 sec) 
Heartbeat CPU 0 instructions: 130000000 cycles: 66011423 heartbeat IPC: 1.70063 cumulative IPC: 0.92192 (Simulation time: 0 hr 4 min 18 sec) 
Heartbeat CPU 0 instructions: 140000001 cycles: 71885963 heartbeat IPC: 1.70226 cumulative IPC: 1.04125 (Simulation time: 0 hr 4 min 34 sec) 
Heartbeat CPU 0 instructions: 150000001 cycles: 79967811 heartbeat IPC: 1.23734 cumulative IPC: 1.07533 (Simulation time: 0 hr 4 min 49 sec) 
Heartbeat CPU 0 instructions: 160000001 cycles: 88758519 heartbeat IPC: 1.13756 cumulative IPC: 1.08523 (Simulation time: 0 hr 5 min 4 sec) 
Heartbeat CPU 0 instructions: 170000001 cycles: 97299833 heartbeat IPC: 1.17078 cumulative IPC: 1.09668 (Simulation time: 0 hr 5 min 19 sec) 
Heartbeat CPU 0 instructions: 180000001 cycles: 105545317 heartbeat IPC: 1.21279 cumulative IPC: 1.10996 (Simulation time: 0 hr 5 min 34 sec) 
Heartbeat CPU 0 instructions: 190000000 cycles: 113945323 heartbeat IPC: 1.19048 cumulative IPC: 1.11836 (Simulation time: 0 hr 5 min 50 sec) 
Heartbeat CPU 0 instructions: 200000003 cycles: 123706714 heartbeat IPC: 1.02444 cumulative IPC: 1.1082 (Simulation time: 0 hr 6 min 5 sec) 
Heartbeat CPU 0 instructions: 210000001 cycles: 144956134 heartbeat IPC: 0.470601 cumulative IPC: 0.986675 (Simulation time: 0 hr 6 min 33 sec) 
Heartbeat CPU 0 instructions: 220000000 cycles: 151763046 heartbeat IPC: 1.46909 cumulative IPC: 1.01444 (Simulation time: 0 hr 6 min 50 sec) 
Heartbeat CPU 0 instructions: 230000003 cycles: 157624387 heartbeat IPC: 1.70609 cumulative IPC: 1.04709 (Simulation time: 0 hr 7 min 7 sec) 
Heartbeat CPU 0 instructions: 240000001 cycles: 163478533 heartbeat IPC: 1.70819 cumulative IPC: 1.07686 (Simulation time: 0 hr 7 min 23 sec) 
Heartbeat CPU 0 instructions: 250000000 cycles: 170781889 heartbeat IPC: 1.36923 cumulative IPC: 1.09241 (Simulation time: 0 hr 7 min 38 sec) 
Heartbeat CPU 0 instructions: 260000000 cycles: 179455388 heartbeat IPC: 1.15294 cumulative IPC: 1.096 (Simulation time: 0 hr 7 min 53 sec) 
Heartbeat CPU 0 instructions: 270000000 cycles: 188034162 heartbeat IPC: 1.16567 cumulative IPC: 1.09987 (Simulation time: 0 hr 8 min 8 sec) 
Heartbeat CPU 0 instructions: 280000002 cycles: 195446876 heartbeat IPC: 1.34903 cumulative IPC: 1.11127 (Simulation time: 0 hr 8 min 23 sec) 
Heartbeat CPU 0 instructions: 290000003 cycles: 204563180 heartbeat IPC: 1.09694 cumulative IPC: 1.11051 (Simulation time: 0 hr 8 min 39 sec) 
Heartbeat CPU 0 instructions: 300000003 cycles: 213925252 heartbeat IPC: 1.06814 cumulative IPC: 1.10831 (Simulation time: 0 hr 8 min 54 sec) 
Heartbeat CPU 0 instructions: 310000000 cycles: 235014105 heartbeat IPC: 0.474184 cumulative IPC: 1.04196 (Simulation time: 0 hr 9 min 23 sec) 
Heartbeat CPU 0 instructions: 320000000 cycles: 242978307 heartbeat IPC: 1.25562 cumulative IPC: 1.05008 (Simulation time: 0 hr 9 min 38 sec) 
Heartbeat CPU 0 instructions: 330000000 cycles: 248858318 heartbeat IPC: 1.70068 cumulative IPC: 1.06784 (Simulation time: 0 hr 9 min 55 sec) 
Heartbeat CPU 0 instructions: 340000000 cycles: 254666489 heartbeat IPC: 1.72171 cumulative IPC: 1.08501 (Simulation time: 0 hr 10 min 12 sec) 
Heartbeat CPU 0 instructions: 350000000 cycles: 261046773 heartbeat IPC: 1.56733 cumulative IPC: 1.09853 (Simulation time: 0 hr 10 min 27 sec) 
Heartbeat CPU 0 instructions: 360000000 cycles: 268839303 heartbeat IPC: 1.28328 cumulative IPC: 1.10465 (Simulation time: 0 hr 10 min 42 sec) 
Heartbeat CPU 0 instructions: 370000000 cycles: 277622686 heartbeat IPC: 1.13851 cumulative IPC: 1.10587 (Simulation time: 0 hr 10 min 57 sec) 
Heartbeat CPU 0 instructions: 380000000 cycles: 285717424 heartbeat IPC: 1.23537 cumulative IPC: 1.11002 (Simulation time: 0 hr 11 min 12 sec) 
Heartbeat CPU 0 instructions: 390000000 cycles: 294344185 heartbeat IPC: 1.15918 cumulative IPC: 1.11165 (Simulation time: 0 hr 11 min 27 sec) 
Heartbeat CPU 0 instructions: 400000000 cycles: 302568456 heartbeat IPC: 1.21591 cumulative IPC: 1.11484 (Simulation time: 0 hr 11 min 42 sec) 
Heartbeat CPU 0 instructions: 410000001 cycles: 314902957 heartbeat IPC: 0.810734 cumulative IPC: 1.10151 (Simulation time: 0 hr 12 min 1 sec) 
Heartbeat CPU 0 instructions: 420000001 cycles: 333402971 heartbeat IPC: 0.54054 cumulative IPC: 1.06691 (Simulation time: 0 hr 12 min 25 sec) 
Heartbeat CPU 0 instructions: 430000003 cycles: 339622572 heartbeat IPC: 1.60782 cumulative IPC: 1.0779 (Simulation time: 0 hr 12 min 43 sec) 
Heartbeat CPU 0 instructions: 440000000 cycles: 345471754 heartbeat IPC: 1.70964 cumulative IPC: 1.08974 (Simulation time: 0 hr 12 min 59 sec) 
Heartbeat CPU 0 instructions: 450000000 cycles: 351433461 heartbeat IPC: 1.67737 cumulative IPC: 1.10076 (Simulation time: 0 hr 13 min 15 sec) 
Heartbeat CPU 0 instructions: 460000000 cycles: 359154230 heartbeat IPC: 1.29521 cumulative IPC: 1.10537 (Simulation time: 0 hr 13 min 30 sec) 
Heartbeat CPU 0 instructions: 470000001 cycles: 367804113 heartbeat IPC: 1.15609 cumulative IPC: 1.10668 (Simulation time: 0 hr 13 min 45 sec) 
Heartbeat CPU 0 instructions: 480000001 cycles: 376099045 heartbeat IPC: 1.20556 cumulative IPC: 1.10907 (Simulation time: 0 hr 13 min 59 sec) 
Heartbeat CPU 0 instructions: 490000003 cycles: 384471350 heartbeat IPC: 1.19441 cumulative IPC: 1.11111 (Simulation time: 0 hr 14 min 14 sec) 
Heartbeat CPU 0 instructions: 500000001 cycles: 392738178 heartbeat IPC: 1.20965 cumulative IPC: 1.11338 (Simulation time: 0 hr 14 min 29 sec) 
Heartbeat CPU 0 instructions: 510000001 cycles: 403345860 heartbeat IPC: 0.942713 cumulative IPC: 1.10848 (Simulation time: 0 hr 14 min 45 sec) 
Heartbeat CPU 0 instructions: 520000001 cycles: 424056659 heartbeat IPC: 0.48284 cumulative IPC: 1.07531 (Simulation time: 0 hr 15 min 12 sec) 
Heartbeat CPU 0 instructions: 530000001 cycles: 430265372 heartbeat IPC: 1.61064 cumulative IPC: 1.08368 (Simulation time: 0 hr 15 min 29 sec) 
Heartbeat CPU 0 instructions: 540000000 cycles: 436114293 heartbeat IPC: 1.70972 cumulative IPC: 1.09278 (Simulation time: 0 hr 15 min 46 sec) 
Heartbeat CPU 0 instructions: 550000000 cycles: 442105358 heartbeat IPC: 1.66915 cumulative IPC: 1.10123 (Simulation time: 0 hr 16 min 1 sec) 
Heartbeat CPU 0 instructions: 560000000 cycles: 449490064 heartbeat IPC: 1.35415 cumulative IPC: 1.10572 (Simulation time: 0 hr 16 min 16 sec) 
Heartbeat CPU 0 instructions: 570000000 cycles: 457930509 heartbeat IPC: 1.18477 cumulative IPC: 1.10729 (Simulation time: 0 hr 16 min 31 sec) 
Heartbeat CPU 0 instructions: 580000001 cycles: 466316716 heartbeat IPC: 1.19243 cumulative IPC: 1.10894 (Simulation time: 0 hr 16 min 45 sec) 
Heartbeat CPU 0 instructions: 590000000 cycles: 474577027 heartbeat IPC: 1.21061 cumulative IPC: 1.11084 (Simulation time: 0 hr 17 min 0 sec) 
Heartbeat CPU 0 instructions: 600000002 cycles: 483055018 heartbeat IPC: 1.17953 cumulative IPC: 1.11214 (Simulation time: 0 hr 17 min 15 sec) 
Heartbeat CPU 0 instructions: 610000003 cycles: 493078220 heartbeat IPC: 0.997685 cumulative IPC: 1.10964 (Simulation time: 0 hr 17 min 31 sec) 
Heartbeat CPU 0 instructions: 620000002 cycles: 513615114 heartbeat IPC: 0.486928 cumulative IPC: 1.08301 (Simulation time: 0 hr 17 min 58 sec) 
Heartbeat CPU 0 instructions: 630000000 cycles: 519978452 heartbeat IPC: 1.5715 cumulative IPC: 1.0894 (Simulation time: 0 hr 18 min 15 sec) 
Heartbeat CPU 0 instructions: 640000002 cycles: 525847307 heartbeat IPC: 1.70391 cumulative IPC: 1.09672 (Simulation time: 0 hr 18 min 31 sec) 
Heartbeat CPU 0 instructions: 650000000 cycles: 532488500 heartbeat IPC: 1.50575 cumulative IPC: 1.10216 (Simulation time: 0 hr 18 min 46 sec) 
Heartbeat CPU 0 instructions: 660000000 cycles: 541210534 heartbeat IPC: 1.14652 cumulative IPC: 1.10293 (Simulation time: 0 hr 19 min 1 sec) 
Heartbeat CPU 0 instructions: 670000000 cycles: 550011150 heartbeat IPC: 1.13628 cumulative IPC: 1.1035 (Simulation time: 0 hr 19 min 16 sec) 
Heartbeat CPU 0 instructions: 680000000 cycles: 557749067 heartbeat IPC: 1.29234 cumulative IPC: 1.10628 (Simulation time: 0 hr 19 min 31 sec) 
Heartbeat CPU 0 instructions: 690000002 cycles: 566516871 heartbeat IPC: 1.14054 cumulative IPC: 1.10685 (Simulation time: 0 hr 19 min 46 sec) 
Heartbeat CPU 0 instructions: 700000001 cycles: 576344075 heartbeat IPC: 1.01758 cumulative IPC: 1.10523 (Simulation time: 0 hr 20 min 2 sec) 
Heartbeat CPU 0 instructions: 710000001 cycles: 597172037 heartbeat IPC: 0.480124 cumulative IPC: 1.08213 (Simulation time: 0 hr 20 min 30 sec) 
Heartbeat CPU 0 instructions: 720000003 cycles: 603933622 heartbeat IPC: 1.47894 cumulative IPC: 1.08684 (Simulation time: 0 hr 20 min 46 sec) 
Heartbeat CPU 0 instructions: 730000000 cycles: 609856951 heartbeat IPC: 1.68824 cumulative IPC: 1.09302 (Simulation time: 0 hr 21 min 4 sec) 
Heartbeat CPU 0 instructions: 740000002 cycles: 616849844 heartbeat IPC: 1.43002 cumulative IPC: 1.09706 (Simulation time: 0 hr 21 min 19 sec) 
Heartbeat CPU 0 instructions: 750000002 cycles: 625140820 heartbeat IPC: 1.20613 cumulative IPC: 1.09859 (Simulation time: 0 hr 21 min 34 sec) 
Heartbeat CPU 0 instructions: 760000000 cycles: 633875580 heartbeat IPC: 1.14485 cumulative IPC: 1.09926 (Simulation time: 0 hr 21 min 49 sec) 
Heartbeat CPU 0 instructions: 770000000 cycles: 641636919 heartbeat IPC: 1.28844 cumulative IPC: 1.10167 (Simulation time: 0 hr 22 min 4 sec) 
Heartbeat CPU 0 instructions: 780000003 cycles: 650504238 heartbeat IPC: 1.12774 cumulative IPC: 1.10205 (Simulation time: 0 hr 22 min 19 sec) 
Heartbeat CPU 0 instructions: 790000000 cycles: 660010319 heartbeat IPC: 1.05196 cumulative IPC: 1.10129 (Simulation time: 0 hr 22 min 34 sec) 
Heartbeat CPU 0 instructions: 800000000 cycles: 681225745 heartbeat IPC: 0.471355 cumulative IPC: 1.08066 (Simulation time: 0 hr 23 min 2 sec) 
Heartbeat CPU 0 instructions: 810000003 cycles: 688171168 heartbeat IPC: 1.4398 cumulative IPC: 1.08447 (Simulation time: 0 hr 23 min 19 sec) 
Heartbeat CPU 0 instructions: 820000002 cycles: 694025503 heartbeat IPC: 1.70814 cumulative IPC: 1.08999 (Simulation time: 0 hr 23 min 37 sec) 
Heartbeat CPU 0 instructions: 830000001 cycles: 701427269 heartbeat IPC: 1.35103 cumulative IPC: 1.09289 (Simulation time: 0 hr 23 min 52 sec) 
Heartbeat CPU 0 instructions: 840000000 cycles: 709149292 heartbeat IPC: 1.295 cumulative IPC: 1.0952 (Simulation time: 0 hr 24 min 7 sec) 
Heartbeat CPU 0 instructions: 850000001 cycles: 717834730 heartbeat IPC: 1.15135 cumulative IPC: 1.09591 (Simulation time: 0 hr 24 min 22 sec) 
Heartbeat CPU 0 instructions: 860000002 cycles: 725186866 heartbeat IPC: 1.36015 cumulative IPC: 1.09872 (Simulation time: 0 hr 24 min 37 sec) 
Heartbeat CPU 0 instructions: 870000000 cycles: 734320015 heartbeat IPC: 1.09491 cumulative IPC: 1.09867 (Simulation time: 0 hr 24 min 52 sec) 
Heartbeat CPU 0 instructions: 880000000 cycles: 743916209 heartbeat IPC: 1.04208 cumulative IPC: 1.0979 (Simulation time: 0 hr 25 min 7 sec) 
Heartbeat CPU 0 instructions: 890000000 cycles: 764657199 heartbeat IPC: 0.482137 cumulative IPC: 1.08044 (Simulation time: 0 hr 25 min 35 sec) 
Heartbeat CPU 0 instructions: 900000002 cycles: 771898019 heartbeat IPC: 1.38106 cumulative IPC: 1.08338 (Simulation time: 0 hr 25 min 51 sec) 
Heartbeat CPU 0 instructions: 910000000 cycles: 777761113 heartbeat IPC: 1.70558 cumulative IPC: 1.08828 (Simulation time: 0 hr 26 min 7 sec) 
Heartbeat CPU 0 instructions: 920000001 cycles: 783589534 heartbeat IPC: 1.71573 cumulative IPC: 1.09316 (Simulation time: 0 hr 26 min 24 sec) 
Heartbeat CPU 0 instructions: 930000001 cycles: 791583737 heartbeat IPC: 1.25091 cumulative IPC: 1.09482 (Simulation time: 0 hr 26 min 39 sec) 
Heartbeat CPU 0 instructions: 940000000 cycles: 800399318 heartbeat IPC: 1.13436 cumulative IPC: 1.09528 (Simulation time: 0 hr 26 min 53 sec) 
Heartbeat CPU 0 instructions: 950000003 cycles: 808754977 heartbeat IPC: 1.19679 cumulative IPC: 1.09637 (Simulation time: 0 hr 27 min 8 sec) 
Heartbeat CPU 0 instructions: 960000001 cycles: 816988196 heartbeat IPC: 1.21459 cumulative IPC: 1.09761 (Simulation time: 0 hr 27 min 23 sec) 
Heartbeat CPU 0 instructions: 970000000 cycles: 825322904 heartbeat IPC: 1.1998 cumulative IPC: 1.09869 (Simulation time: 0 hr 27 min 38 sec) 
Heartbeat CPU 0 instructions: 980000002 cycles: 835223177 heartbeat IPC: 1.01007 cumulative IPC: 1.0976 (Simulation time: 0 hr 27 min 54 sec) 
Heartbeat CPU 0 instructions: 990000000 cycles: 856333684 heartbeat IPC: 0.473698 cumulative IPC: 1.08159 (Simulation time: 0 hr 28 min 21 sec) 
Heartbeat CPU 0 instructions: 1000000000 cycles: 862840213 heartbeat IPC: 1.53692 cumulative IPC: 1.08516 (Simulation time: 0 hr 28 min 38 sec) 
Heartbeat CPU 0 instructions: 1010000000 cycles: 868686193 heartbeat IPC: 1.71058 cumulative IPC: 1.08954 (Simulation time: 0 hr 28 min 55 sec) 
Heartbeat CPU 0 instructions: 1020000000 cycles: 874789434 heartbeat IPC: 1.63847 cumulative IPC: 1.09352 (Simulation time: 0 hr 29 min 10 sec) 
Heartbeat CPU 0 instructions: 1030000002 cycles: 883438203 heartbeat IPC: 1.15623 cumulative IPC: 1.09416 (Simulation time: 0 hr 29 min 25 sec) 
Heartbeat CPU 0 instructions: 1040000000 cycles: 891172086 heartbeat IPC: 1.29301 cumulative IPC: 1.09595 (Simulation time: 0 hr 29 min 40 sec) 
Heartbeat CPU 0 instructions: 1050000001 cycles: 898991669 heartbeat IPC: 1.27884 cumulative IPC: 1.0976 (Simulation time: 0 hr 29 min 54 sec) 
Heartbeat CPU 0 instructions: 1060000003 cycles: 907883555 heartbeat IPC: 1.12462 cumulative IPC: 1.09788 (Simulation time: 0 hr 30 min 9 sec) 
Heartbeat CPU 0 instructions: 1070000002 cycles: 916374398 heartbeat IPC: 1.17774 cumulative IPC: 1.09865 (Simulation time: 0 hr 30 min 23 sec) 
Heartbeat CPU 0 instructions: 1080000003 cycles: 935356072 heartbeat IPC: 0.526824 cumulative IPC: 1.08661 (Simulation time: 0 hr 30 min 51 sec) 
Heartbeat CPU 0 instructions: 1090000003 cycles: 946724830 heartbeat IPC: 0.879604 cumulative IPC: 1.08404 (Simulation time: 0 hr 31 min 8 sec) 
Heartbeat CPU 0 instructions: 1100000000 cycles: 952680100 heartbeat IPC: 1.67918 cumulative IPC: 1.08789 (Simulation time: 0 hr 31 min 24 sec) 
Finished CPU 0 instructions: 1000000003 cycles: 919209469 cumulative IPC: 1.08789 (Simulation time: 0 hr 31 min 24 sec) 

ChampSim completed all CPUs

Region of Interest Statistics

CPU 0 cumulative IPC: 1.08789 instructions: 1000000003 cycles: 919209469
L1D TOTAL     ACCESS:  210102305  HIT:  199888544  MISS:   10213761
L1D LOAD      ACCESS:  126599936  HIT:  123132505  MISS:    3467431
L1D RFO       ACCESS:   83502369  HIT:   76756039  MISS:    6746330
L1D PREFETCH  ACCESS:          0  HIT:          0  MISS:          0
L1D WRITEBACK ACCESS:          0  HIT:          0  MISS:          0
L1D PREFETCH  REQUESTED:          0  ISSUED:          0  USEFUL:          0  USELESS:          0
L1D AVERAGE MISS LATENCY: 290.019 cycles
L1I TOTAL     ACCESS:  166876147  HIT:  166467940  MISS:     408207
L1I LOAD      ACCESS:  166876147  HIT:  166467940  MISS:     408207
L1I RFO       ACCESS:          0  HIT:          0  MISS:          0
L1I PREFETCH  ACCESS:          0  HIT:          0  MISS:          0
L1I WRITEBACK ACCESS:          0  HIT:          0  MISS:          0
L1I PREFETCH  REQUESTED:          0  ISSUED:          0  USEFUL:          0  USELESS:          0
L1I AVERAGE MISS LATENCY: 72.8389 cycles
L2C TOTAL     ACCESS:   17800615  HIT:   11265281  MISS:    6535334
L2C LOAD      ACCESS:    3875437  HIT:    2848934  MISS:    1026503
L2C RFO       ACCESS:    6746248  HIT:    1239800  MISS:    5506448
L2C PREFETCH  ACCESS:          0  HIT:          0  MISS:          0
L2C WRITEBACK ACCESS:    7178930  HIT:    7176547  MISS:       2383
L2C PREFETCH  REQUESTED:          0  ISSUED:          0  USEFUL:          0  USELESS:          0
L2C AVERAGE MISS LATENCY: 437.069 cycles
LLC TOTAL     ACCESS:   12210893  HIT:    1742867  MISS:   10468026
LLC LOAD      ACCESS:    1026467  HIT:     480262  MISS:     546205
LLC RFO       ACCESS:    5506391  HIT:     398110  MISS:    5108281
LLC PREFETCH  ACCESS:          0  HIT:          0  MISS:          0
LLC WRITEBACK ACCESS:    5678035  HIT:     864495  MISS:    4813540
LLC PREFETCH  REQUESTED:          0  ISSUED:          0  USEFUL:          0  USELESS:          0
LLC AVERAGE MISS LATENCY: 245.541 cycles
Major fault: 0 Minor fault: 7146
==============================
Perceptron RRIP Stats:
   Num Updates:          364981
   Num Primary Trains:   4442
   Num Secondary Trains: 4740
==============================
primary_perceptron #0: 6 0 0 0 0 -2 -2 -2 0 -6 -2 -2 10 -2 -2 -14 
secondary_perceptron #0: 10 0 -2 2 0 -2 2 -2 2 -6 0 0 12 -6 0 -4 -4 -2 -2 4 -18 


DRAM Statistics
 CHANNEL 0
 RQ ROW_BUFFER_HIT:    2360507  ROW_BUFFER_MISS:    3293765
 DBUS_CONGESTED:    8504159
 WQ ROW_BUFFER_HIT:    2204099  ROW_BUFFER_MISS:    2968641  FULL:    6060929

 AVG_CONGESTED_CYCLE: 6

CPU 0 Branch Prediction Accuracy: 93.7395% MPKI: 8.37522 Average ROB Occupancy at Mispredict: 32.1367

Branch types
NOT_BRANCH: 866220376 86.622%
BRANCH_DIRECT_JUMP: 7799639 0.779964%
BRANCH_INDIRECT: 50546 0.0050546%
BRANCH_CONDITIONAL: 115170924 11.5171%
BRANCH_DIRECT_CALL: 5379115 0.537911%
BRANCH_INDIRECT_CALL: 0 0%
BRANCH_RETURN: 5379110 0.537911%
BRANCH_OTHER: 0 0%

