
*** ChampSim Multicore Out-of-Order Simulator ***

Warmup Instructions: 100000000
Simulation Instructions: 1000000000
Number of CPUs: 1
LLC sets: 2048
LLC ways: 16
Off-chip DRAM Size: 4096 MB Channels: 1 Width: 64-bit Data Rate: 3200 MT/s

CPU 0 runs /scratch/user/kevin.weston/dpc3-traces/627.champsimtrace.xz
CPU 0 Bimodal branch predictor
Initialize SHIP state
Assign rand_sets[0]: 454  LLC: 2048
rand_sets[0]: 454
Assign rand_sets[1]: 1662  LLC: 2048
rand_sets[1]: 1662
Assign rand_sets[2]: 1921  LLC: 2048
rand_sets[2]: 1921
Assign rand_sets[3]: 1131  LLC: 2048
rand_sets[3]: 1131
Assign rand_sets[4]: 331  LLC: 2048
rand_sets[4]: 331
Assign rand_sets[5]: 1531  LLC: 2048
rand_sets[5]: 1531
Assign rand_sets[6]: 482  LLC: 2048
rand_sets[6]: 482
Assign rand_sets[7]: 1275  LLC: 2048
rand_sets[7]: 1275
Assign rand_sets[8]: 1876  LLC: 2048
rand_sets[8]: 1876
Assign rand_sets[9]: 2038  LLC: 2048
rand_sets[9]: 2038
Assign rand_sets[10]: 701  LLC: 2048
rand_sets[10]: 701
Assign rand_sets[11]: 479  LLC: 2048
rand_sets[11]: 479
Assign rand_sets[12]: 892  LLC: 2048
rand_sets[12]: 892
Assign rand_sets[13]: 1820  LLC: 2048
rand_sets[13]: 1820
Assign rand_sets[14]: 1505  LLC: 2048
rand_sets[14]: 1505
Assign rand_sets[15]: 1159  LLC: 2048
rand_sets[15]: 1159
Assign rand_sets[16]: 513  LLC: 2048
rand_sets[16]: 513
Assign rand_sets[17]: 703  LLC: 2048
rand_sets[17]: 703
Assign rand_sets[18]: 561  LLC: 2048
rand_sets[18]: 561
Assign rand_sets[19]: 990  LLC: 2048
rand_sets[19]: 990
Assign rand_sets[20]: 342  LLC: 2048
rand_sets[20]: 342
Assign rand_sets[21]: 882  LLC: 2048
rand_sets[21]: 882
Assign rand_sets[22]: 15  LLC: 2048
rand_sets[22]: 15
Assign rand_sets[23]: 71  LLC: 2048
rand_sets[23]: 71
Assign rand_sets[24]: 1127  LLC: 2048
rand_sets[24]: 1127
Assign rand_sets[25]: 1382  LLC: 2048
rand_sets[25]: 1382
Assign rand_sets[26]: 647  LLC: 2048
rand_sets[26]: 647
Assign rand_sets[27]: 857  LLC: 2048
rand_sets[27]: 857
Assign rand_sets[28]: 1450  LLC: 2048
rand_sets[28]: 1450
Assign rand_sets[29]: 1160  LLC: 2048
rand_sets[29]: 1160
Assign rand_sets[30]: 1852  LLC: 2048
rand_sets[30]: 1852
Assign rand_sets[31]: 1881  LLC: 2048
rand_sets[31]: 1881
Assign rand_sets[32]: 1770  LLC: 2048
rand_sets[32]: 1770
Assign rand_sets[33]: 1622  LLC: 2048
rand_sets[33]: 1622
Assign rand_sets[34]: 275  LLC: 2048
rand_sets[34]: 275
Assign rand_sets[35]: 635  LLC: 2048
rand_sets[35]: 635
Assign rand_sets[36]: 466  LLC: 2048
rand_sets[36]: 466
Assign rand_sets[37]: 1413  LLC: 2048
rand_sets[37]: 1413
Assign rand_sets[38]: 417  LLC: 2048
rand_sets[38]: 417
Assign rand_sets[39]: 472  LLC: 2048
rand_sets[39]: 472
Assign rand_sets[40]: 1340  LLC: 2048
rand_sets[40]: 1340
Assign rand_sets[41]: 852  LLC: 2048
rand_sets[41]: 852
Assign rand_sets[42]: 1365  LLC: 2048
rand_sets[42]: 1365
Assign rand_sets[43]: 47  LLC: 2048
rand_sets[43]: 47
Assign rand_sets[44]: 823  LLC: 2048
rand_sets[44]: 823
Assign rand_sets[45]: 686  LLC: 2048
rand_sets[45]: 686
Assign rand_sets[46]: 1637  LLC: 2048
rand_sets[46]: 1637
Assign rand_sets[47]: 1115  LLC: 2048
rand_sets[47]: 1115
Assign rand_sets[48]: 986  LLC: 2048
rand_sets[48]: 986
Assign rand_sets[49]: 258  LLC: 2048
rand_sets[49]: 258
Assign rand_sets[50]: 633  LLC: 2048
rand_sets[50]: 633
Assign rand_sets[51]: 920  LLC: 2048
rand_sets[51]: 920
Assign rand_sets[52]: 204  LLC: 2048
rand_sets[52]: 204
Assign rand_sets[53]: 227  LLC: 2048
rand_sets[53]: 227
Assign rand_sets[54]: 1818  LLC: 2048
rand_sets[54]: 1818
Assign rand_sets[55]: 886  LLC: 2048
rand_sets[55]: 886
Assign rand_sets[56]: 1422  LLC: 2048
rand_sets[56]: 1422
Assign rand_sets[57]: 607  LLC: 2048
rand_sets[57]: 607
Assign rand_sets[58]: 217  LLC: 2048
rand_sets[58]: 217
Assign rand_sets[59]: 1945  LLC: 2048
rand_sets[59]: 1945
Assign rand_sets[60]: 143  LLC: 2048
rand_sets[60]: 143
Assign rand_sets[61]: 1311  LLC: 2048
rand_sets[61]: 1311
Assign rand_sets[62]: 319  LLC: 2048
rand_sets[62]: 319
Assign rand_sets[63]: 1846  LLC: 2048
rand_sets[63]: 1846
Assign rand_sets[64]: 238  LLC: 2048
rand_sets[64]: 238
Assign rand_sets[65]: 67  LLC: 2048
rand_sets[65]: 67
Assign rand_sets[66]: 1912  LLC: 2048
rand_sets[66]: 1912
Assign rand_sets[67]: 1613  LLC: 2048
rand_sets[67]: 1613
Assign rand_sets[68]: 1293  LLC: 2048
rand_sets[68]: 1293
Assign rand_sets[69]: 1018  LLC: 2048
rand_sets[69]: 1018
Assign rand_sets[70]: 1982  LLC: 2048
rand_sets[70]: 1982
Assign rand_sets[71]: 1702  LLC: 2048
rand_sets[71]: 1702
Assign rand_sets[72]: 1498  LLC: 2048
rand_sets[72]: 1498
Assign rand_sets[73]: 228  LLC: 2048
rand_sets[73]: 228
Assign rand_sets[74]: 1414  LLC: 2048
rand_sets[74]: 1414
Assign rand_sets[75]: 1166  LLC: 2048
rand_sets[75]: 1166
Assign rand_sets[76]: 732  LLC: 2048
rand_sets[76]: 732
Assign rand_sets[77]: 297  LLC: 2048
rand_sets[77]: 297
Assign rand_sets[78]: 1133  LLC: 2048
rand_sets[78]: 1133
Assign rand_sets[79]: 846  LLC: 2048
rand_sets[79]: 846
Assign rand_sets[80]: 767  LLC: 2048
rand_sets[80]: 767
Assign rand_sets[81]: 1878  LLC: 2048
rand_sets[81]: 1878
Assign rand_sets[82]: 993  LLC: 2048
rand_sets[82]: 993
Assign rand_sets[83]: 1392  LLC: 2048
rand_sets[83]: 1392
Assign rand_sets[84]: 1568  LLC: 2048
rand_sets[84]: 1568
Assign rand_sets[85]: 1787  LLC: 2048
rand_sets[85]: 1787
Assign rand_sets[86]: 399  LLC: 2048
rand_sets[86]: 399
Assign rand_sets[87]: 1201  LLC: 2048
rand_sets[87]: 1201
Assign rand_sets[88]: 856  LLC: 2048
rand_sets[88]: 856
Assign rand_sets[89]: 773  LLC: 2048
rand_sets[89]: 773
Assign rand_sets[90]: 1680  LLC: 2048
rand_sets[90]: 1680
Assign rand_sets[91]: 1477  LLC: 2048
rand_sets[91]: 1477
Assign rand_sets[92]: 9  LLC: 2048
rand_sets[92]: 9
Assign rand_sets[93]: 1500  LLC: 2048
rand_sets[93]: 1500
Assign rand_sets[94]: 851  LLC: 2048
rand_sets[94]: 851
Assign rand_sets[95]: 973  LLC: 2048
rand_sets[95]: 973
Assign rand_sets[96]: 938  LLC: 2048
rand_sets[96]: 938
Assign rand_sets[97]: 1851  LLC: 2048
rand_sets[97]: 1851
Assign rand_sets[98]: 1608  LLC: 2048
rand_sets[98]: 1608
Assign rand_sets[99]: 1945  LLC: 2048
Assign rand_sets[99]: 1106  LLC: 2048
rand_sets[99]: 1106
Assign rand_sets[100]: 979  LLC: 2048
rand_sets[100]: 979
Assign rand_sets[101]: 338  LLC: 2048
rand_sets[101]: 338
Assign rand_sets[102]: 1693  LLC: 2048
rand_sets[102]: 1693
Assign rand_sets[103]: 6  LLC: 2048
rand_sets[103]: 6
Assign rand_sets[104]: 671  LLC: 2048
rand_sets[104]: 671
Assign rand_sets[105]: 490  LLC: 2048
rand_sets[105]: 490
Assign rand_sets[106]: 1461  LLC: 2048
rand_sets[106]: 1461
Assign rand_sets[107]: 1730  LLC: 2048
rand_sets[107]: 1730
Assign rand_sets[108]: 1030  LLC: 2048
rand_sets[108]: 1030
Assign rand_sets[109]: 19  LLC: 2048
rand_sets[109]: 19
Assign rand_sets[110]: 920  LLC: 2048
Assign rand_sets[110]: 329  LLC: 2048
rand_sets[110]: 329
Assign rand_sets[111]: 1714  LLC: 2048
rand_sets[111]: 1714
Assign rand_sets[112]: 1  LLC: 2048
rand_sets[112]: 1
Assign rand_sets[113]: 1822  LLC: 2048
rand_sets[113]: 1822
Assign rand_sets[114]: 172  LLC: 2048
rand_sets[114]: 172
Assign rand_sets[115]: 1586  LLC: 2048
rand_sets[115]: 1586
Assign rand_sets[116]: 648  LLC: 2048
rand_sets[116]: 648
Assign rand_sets[117]: 1329  LLC: 2048
rand_sets[117]: 1329
Assign rand_sets[118]: 668  LLC: 2048
rand_sets[118]: 668
Assign rand_sets[119]: 1874  LLC: 2048
rand_sets[119]: 1874
Assign rand_sets[120]: 70  LLC: 2048
rand_sets[120]: 70
Assign rand_sets[121]: 661  LLC: 2048
rand_sets[121]: 661
Assign rand_sets[122]: 1649  LLC: 2048
rand_sets[122]: 1649
Assign rand_sets[123]: 1590  LLC: 2048
rand_sets[123]: 1590
Assign rand_sets[124]: 911  LLC: 2048
rand_sets[124]: 911
Assign rand_sets[125]: 1367  LLC: 2048
rand_sets[125]: 1367
Assign rand_sets[126]: 1782  LLC: 2048
rand_sets[126]: 1782
Assign rand_sets[127]: 569  LLC: 2048
rand_sets[127]: 569
Heartbeat CPU 0 instructions: 10000003 cycles: 3428489 heartbeat IPC: 2.91674 cumulative IPC: 2.91674 (Simulation time: 0 hr 0 min 18 sec) 
Heartbeat CPU 0 instructions: 20000001 cycles: 6666139 heartbeat IPC: 3.08866 cumulative IPC: 3.00024 (Simulation time: 0 hr 0 min 38 sec) 
Heartbeat CPU 0 instructions: 30000003 cycles: 9897253 heartbeat IPC: 3.09491 cumulative IPC: 3.03114 (Simulation time: 0 hr 0 min 58 sec) 
Heartbeat CPU 0 instructions: 40000003 cycles: 13067279 heartbeat IPC: 3.15455 cumulative IPC: 3.06108 (Simulation time: 0 hr 1 min 17 sec) 
Heartbeat CPU 0 instructions: 50000002 cycles: 16395686 heartbeat IPC: 3.00444 cumulative IPC: 3.04958 (Simulation time: 0 hr 1 min 37 sec) 
Heartbeat CPU 0 instructions: 60000003 cycles: 19757009 heartbeat IPC: 2.97502 cumulative IPC: 3.0369 (Simulation time: 0 hr 1 min 57 sec) 
Heartbeat CPU 0 instructions: 70000002 cycles: 23051729 heartbeat IPC: 3.03516 cumulative IPC: 3.03665 (Simulation time: 0 hr 2 min 16 sec) 
Heartbeat CPU 0 instructions: 80000002 cycles: 26415264 heartbeat IPC: 2.97306 cumulative IPC: 3.02855 (Simulation time: 0 hr 2 min 34 sec) 
Heartbeat CPU 0 instructions: 90000001 cycles: 29972699 heartbeat IPC: 2.81101 cumulative IPC: 3.00273 (Simulation time: 0 hr 2 min 53 sec) 
Heartbeat CPU 0 instructions: 100000001 cycles: 33470173 heartbeat IPC: 2.85921 cumulative IPC: 2.98773 (Simulation time: 0 hr 3 min 13 sec) 

Warmup complete CPU 0 instructions: 100000001 cycles: 33470173 (Simulation time: 0 hr 3 min 13 sec) 

Heartbeat CPU 0 instructions: 110000000 cycles: 54133360 heartbeat IPC: 0.483952 cumulative IPC: 0.483952 (Simulation time: 0 hr 3 min 40 sec) 
Heartbeat CPU 0 instructions: 120000002 cycles: 60559509 heartbeat IPC: 1.55614 cumulative IPC: 0.738298 (Simulation time: 0 hr 3 min 57 sec) 
Heartbeat CPU 0 instructions: 130000000 cycles: 66417962 heartbeat IPC: 1.70693 cumulative IPC: 0.910531 (Simulation time: 0 hr 4 min 14 sec) 
Heartbeat CPU 0 instructions: 140000001 cycles: 72262382 heartbeat IPC: 1.71103 cumulative IPC: 1.03113 (Simulation time: 0 hr 4 min 29 sec) 
Heartbeat CPU 0 instructions: 150000001 cycles: 80069779 heartbeat IPC: 1.28084 cumulative IPC: 1.07297 (Simulation time: 0 hr 4 min 44 sec) 
Heartbeat CPU 0 instructions: 160000001 cycles: 88637223 heartbeat IPC: 1.16721 cumulative IPC: 1.08761 (Simulation time: 0 hr 4 min 58 sec) 
Heartbeat CPU 0 instructions: 170000001 cycles: 96979601 heartbeat IPC: 1.1987 cumulative IPC: 1.1022 (Simulation time: 0 hr 5 min 13 sec) 
Heartbeat CPU 0 instructions: 180000001 cycles: 105077410 heartbeat IPC: 1.2349 cumulative IPC: 1.11721 (Simulation time: 0 hr 5 min 27 sec) 
Heartbeat CPU 0 instructions: 190000000 cycles: 113463559 heartbeat IPC: 1.19244 cumulative IPC: 1.12509 (Simulation time: 0 hr 5 min 43 sec) 
Heartbeat CPU 0 instructions: 200000003 cycles: 123234985 heartbeat IPC: 1.02339 cumulative IPC: 1.11402 (Simulation time: 0 hr 5 min 58 sec) 
Heartbeat CPU 0 instructions: 210000000 cycles: 144739921 heartbeat IPC: 0.465009 cumulative IPC: 0.988589 (Simulation time: 0 hr 6 min 27 sec) 
Heartbeat CPU 0 instructions: 220000000 cycles: 151571469 heartbeat IPC: 1.4638 cumulative IPC: 1.01608 (Simulation time: 0 hr 6 min 44 sec) 
Heartbeat CPU 0 instructions: 230000003 cycles: 157398674 heartbeat IPC: 1.71609 cumulative IPC: 1.04899 (Simulation time: 0 hr 7 min 0 sec) 
Heartbeat CPU 0 instructions: 240000001 cycles: 163214633 heartbeat IPC: 1.71941 cumulative IPC: 1.07904 (Simulation time: 0 hr 7 min 16 sec) 
Heartbeat CPU 0 instructions: 250000000 cycles: 170289882 heartbeat IPC: 1.41338 cumulative IPC: 1.09633 (Simulation time: 0 hr 7 min 31 sec) 
Heartbeat CPU 0 instructions: 260000002 cycles: 178728616 heartbeat IPC: 1.18501 cumulative IPC: 1.10149 (Simulation time: 0 hr 7 min 46 sec) 
Heartbeat CPU 0 instructions: 270000000 cycles: 187072045 heartbeat IPC: 1.19855 cumulative IPC: 1.10676 (Simulation time: 0 hr 8 min 1 sec) 
Heartbeat CPU 0 instructions: 280000002 cycles: 194338657 heartbeat IPC: 1.37616 cumulative IPC: 1.11893 (Simulation time: 0 hr 8 min 16 sec) 
Heartbeat CPU 0 instructions: 290000003 cycles: 203309461 heartbeat IPC: 1.11473 cumulative IPC: 1.1187 (Simulation time: 0 hr 8 min 31 sec) 
Heartbeat CPU 0 instructions: 300000003 cycles: 212699971 heartbeat IPC: 1.0649 cumulative IPC: 1.11589 (Simulation time: 0 hr 8 min 46 sec) 
Heartbeat CPU 0 instructions: 310000000 cycles: 234216712 heartbeat IPC: 0.464754 cumulative IPC: 1.0461 (Simulation time: 0 hr 9 min 17 sec) 
Heartbeat CPU 0 instructions: 320000000 cycles: 242156338 heartbeat IPC: 1.25951 cumulative IPC: 1.05421 (Simulation time: 0 hr 9 min 32 sec) 
Heartbeat CPU 0 instructions: 330000000 cycles: 248010332 heartbeat IPC: 1.70824 cumulative IPC: 1.07206 (Simulation time: 0 hr 9 min 49 sec) 
Heartbeat CPU 0 instructions: 340000000 cycles: 253806469 heartbeat IPC: 1.72529 cumulative IPC: 1.08924 (Simulation time: 0 hr 10 min 5 sec) 
Heartbeat CPU 0 instructions: 350000000 cycles: 260058001 heartbeat IPC: 1.59961 cumulative IPC: 1.10332 (Simulation time: 0 hr 10 min 20 sec) 
Heartbeat CPU 0 instructions: 360000000 cycles: 267676451 heartbeat IPC: 1.3126 cumulative IPC: 1.11013 (Simulation time: 0 hr 10 min 35 sec) 
Heartbeat CPU 0 instructions: 370000000 cycles: 276225553 heartbeat IPC: 1.16971 cumulative IPC: 1.11223 (Simulation time: 0 hr 10 min 49 sec) 
Heartbeat CPU 0 instructions: 380000000 cycles: 284137897 heartbeat IPC: 1.26385 cumulative IPC: 1.11702 (Simulation time: 0 hr 11 min 4 sec) 
Heartbeat CPU 0 instructions: 390000000 cycles: 292533718 heartbeat IPC: 1.19107 cumulative IPC: 1.11942 (Simulation time: 0 hr 11 min 18 sec) 
Heartbeat CPU 0 instructions: 400000000 cycles: 300745201 heartbeat IPC: 1.21781 cumulative IPC: 1.12244 (Simulation time: 0 hr 11 min 33 sec) 
Heartbeat CPU 0 instructions: 410000001 cycles: 312901213 heartbeat IPC: 0.822638 cumulative IPC: 1.1094 (Simulation time: 0 hr 11 min 52 sec) 
Heartbeat CPU 0 instructions: 420000001 cycles: 332080331 heartbeat IPC: 0.5214 cumulative IPC: 1.07163 (Simulation time: 0 hr 12 min 18 sec) 
Heartbeat CPU 0 instructions: 430000003 cycles: 338321094 heartbeat IPC: 1.60237 cumulative IPC: 1.0825 (Simulation time: 0 hr 12 min 35 sec) 
Heartbeat CPU 0 instructions: 440000000 cycles: 344166838 heartbeat IPC: 1.71065 cumulative IPC: 1.09431 (Simulation time: 0 hr 12 min 51 sec) 
Heartbeat CPU 0 instructions: 450000000 cycles: 350067841 heartbeat IPC: 1.69463 cumulative IPC: 1.1055 (Simulation time: 0 hr 13 min 7 sec) 
Heartbeat CPU 0 instructions: 460000000 cycles: 357601151 heartbeat IPC: 1.32744 cumulative IPC: 1.11066 (Simulation time: 0 hr 13 min 22 sec) 
Heartbeat CPU 0 instructions: 470000001 cycles: 366058141 heartbeat IPC: 1.18245 cumulative IPC: 1.11249 (Simulation time: 0 hr 13 min 36 sec) 
Heartbeat CPU 0 instructions: 480000001 cycles: 374182261 heartbeat IPC: 1.2309 cumulative IPC: 1.11531 (Simulation time: 0 hr 13 min 51 sec) 
Heartbeat CPU 0 instructions: 490000003 cycles: 382372177 heartbeat IPC: 1.22101 cumulative IPC: 1.11779 (Simulation time: 0 hr 14 min 5 sec) 
Heartbeat CPU 0 instructions: 500000001 cycles: 390629188 heartbeat IPC: 1.21109 cumulative IPC: 1.11995 (Simulation time: 0 hr 14 min 20 sec) 
Heartbeat CPU 0 instructions: 510000001 cycles: 400873682 heartbeat IPC: 0.976134 cumulative IPC: 1.11594 (Simulation time: 0 hr 14 min 37 sec) 
Heartbeat CPU 0 instructions: 520000001 cycles: 422051285 heartbeat IPC: 0.472197 cumulative IPC: 1.08086 (Simulation time: 0 hr 15 min 5 sec) 
Heartbeat CPU 0 instructions: 530000001 cycles: 428302750 heartbeat IPC: 1.59962 cumulative IPC: 1.08907 (Simulation time: 0 hr 15 min 22 sec) 
Heartbeat CPU 0 instructions: 540000000 cycles: 434138130 heartbeat IPC: 1.71368 cumulative IPC: 1.09817 (Simulation time: 0 hr 15 min 39 sec) 
Heartbeat CPU 0 instructions: 550000000 cycles: 440071686 heartbeat IPC: 1.68533 cumulative IPC: 1.10673 (Simulation time: 0 hr 15 min 54 sec) 
Heartbeat CPU 0 instructions: 560000000 cycles: 447306246 heartbeat IPC: 1.38225 cumulative IPC: 1.11155 (Simulation time: 0 hr 16 min 9 sec) 
Heartbeat CPU 0 instructions: 570000000 cycles: 455503045 heartbeat IPC: 1.21999 cumulative IPC: 1.11366 (Simulation time: 0 hr 16 min 24 sec) 
Heartbeat CPU 0 instructions: 580000001 cycles: 463714543 heartbeat IPC: 1.2178 cumulative IPC: 1.11565 (Simulation time: 0 hr 16 min 38 sec) 
Heartbeat CPU 0 instructions: 590000000 cycles: 471865138 heartbeat IPC: 1.2269 cumulative IPC: 1.11771 (Simulation time: 0 hr 16 min 52 sec) 
Heartbeat CPU 0 instructions: 600000002 cycles: 480342597 heartbeat IPC: 1.1796 cumulative IPC: 1.11889 (Simulation time: 0 hr 17 min 8 sec) 
Heartbeat CPU 0 instructions: 610000003 cycles: 490277636 heartbeat IPC: 1.00654 cumulative IPC: 1.11644 (Simulation time: 0 hr 17 min 24 sec) 
Heartbeat CPU 0 instructions: 620000002 cycles: 511489852 heartbeat IPC: 0.471426 cumulative IPC: 1.08782 (Simulation time: 0 hr 17 min 52 sec) 
Heartbeat CPU 0 instructions: 630000000 cycles: 517890582 heartbeat IPC: 1.56232 cumulative IPC: 1.09409 (Simulation time: 0 hr 18 min 9 sec) 
Heartbeat CPU 0 instructions: 640000002 cycles: 523743449 heartbeat IPC: 1.70856 cumulative IPC: 1.10143 (Simulation time: 0 hr 18 min 25 sec) 
Heartbeat CPU 0 instructions: 650000000 cycles: 530263512 heartbeat IPC: 1.53373 cumulative IPC: 1.1071 (Simulation time: 0 hr 18 min 40 sec) 
Heartbeat CPU 0 instructions: 660000000 cycles: 538745941 heartbeat IPC: 1.17891 cumulative IPC: 1.10831 (Simulation time: 0 hr 18 min 54 sec) 
Heartbeat CPU 0 instructions: 670000000 cycles: 547332802 heartbeat IPC: 1.16457 cumulative IPC: 1.10925 (Simulation time: 0 hr 19 min 9 sec) 
Heartbeat CPU 0 instructions: 680000000 cycles: 554975808 heartbeat IPC: 1.30839 cumulative IPC: 1.11216 (Simulation time: 0 hr 19 min 23 sec) 
Heartbeat CPU 0 instructions: 690000002 cycles: 563572098 heartbeat IPC: 1.16329 cumulative IPC: 1.11299 (Simulation time: 0 hr 19 min 38 sec) 
Heartbeat CPU 0 instructions: 700000001 cycles: 573375788 heartbeat IPC: 1.02002 cumulative IPC: 1.11131 (Simulation time: 0 hr 19 min 54 sec) 
Heartbeat CPU 0 instructions: 710000001 cycles: 594880579 heartbeat IPC: 0.465013 cumulative IPC: 1.08655 (Simulation time: 0 hr 20 min 23 sec) 
Heartbeat CPU 0 instructions: 720000003 cycles: 601648999 heartbeat IPC: 1.47745 cumulative IPC: 1.09121 (Simulation time: 0 hr 20 min 41 sec) 
Heartbeat CPU 0 instructions: 730000000 cycles: 607574048 heartbeat IPC: 1.68775 cumulative IPC: 1.09736 (Simulation time: 0 hr 20 min 59 sec) 
Heartbeat CPU 0 instructions: 740000002 cycles: 614427940 heartbeat IPC: 1.45903 cumulative IPC: 1.10163 (Simulation time: 0 hr 21 min 14 sec) 
Heartbeat CPU 0 instructions: 750000002 cycles: 622505249 heartbeat IPC: 1.23804 cumulative IPC: 1.1035 (Simulation time: 0 hr 21 min 28 sec) 
Heartbeat CPU 0 instructions: 760000000 cycles: 631011452 heartbeat IPC: 1.17561 cumulative IPC: 1.10453 (Simulation time: 0 hr 21 min 42 sec) 
Heartbeat CPU 0 instructions: 770000000 cycles: 638683089 heartbeat IPC: 1.3035 cumulative IPC: 1.10705 (Simulation time: 0 hr 21 min 57 sec) 
Heartbeat CPU 0 instructions: 780000003 cycles: 647367698 heartbeat IPC: 1.15146 cumulative IPC: 1.10768 (Simulation time: 0 hr 22 min 12 sec) 
Heartbeat CPU 0 instructions: 790000000 cycles: 656885876 heartbeat IPC: 1.05062 cumulative IPC: 1.10681 (Simulation time: 0 hr 22 min 26 sec) 
Heartbeat CPU 0 instructions: 800000000 cycles: 678537823 heartbeat IPC: 0.461852 cumulative IPC: 1.08516 (Simulation time: 0 hr 22 min 56 sec) 
Heartbeat CPU 0 instructions: 810000003 cycles: 685517728 heartbeat IPC: 1.43268 cumulative IPC: 1.08888 (Simulation time: 0 hr 23 min 12 sec) 
Heartbeat CPU 0 instructions: 820000002 cycles: 691350157 heartbeat IPC: 1.71455 cumulative IPC: 1.09442 (Simulation time: 0 hr 23 min 30 sec) 
Heartbeat CPU 0 instructions: 830000001 cycles: 698537895 heartbeat IPC: 1.39126 cumulative IPC: 1.09763 (Simulation time: 0 hr 23 min 45 sec) 
Heartbeat CPU 0 instructions: 840000000 cycles: 706100006 heartbeat IPC: 1.32238 cumulative IPC: 1.10016 (Simulation time: 0 hr 23 min 59 sec) 
Heartbeat CPU 0 instructions: 850000001 cycles: 714580609 heartbeat IPC: 1.17916 cumulative IPC: 1.10114 (Simulation time: 0 hr 24 min 14 sec) 
Heartbeat CPU 0 instructions: 860000002 cycles: 721929649 heartbeat IPC: 1.36072 cumulative IPC: 1.10391 (Simulation time: 0 hr 24 min 28 sec) 
Heartbeat CPU 0 instructions: 870000000 cycles: 730900084 heartbeat IPC: 1.11477 cumulative IPC: 1.10405 (Simulation time: 0 hr 24 min 43 sec) 
Heartbeat CPU 0 instructions: 880000000 cycles: 740521948 heartbeat IPC: 1.0393 cumulative IPC: 1.10317 (Simulation time: 0 hr 24 min 58 sec) 
Heartbeat CPU 0 instructions: 890000000 cycles: 762023795 heartbeat IPC: 0.465076 cumulative IPC: 1.08434 (Simulation time: 0 hr 25 min 27 sec) 
Heartbeat CPU 0 instructions: 900000002 cycles: 769225653 heartbeat IPC: 1.38853 cumulative IPC: 1.08732 (Simulation time: 0 hr 25 min 43 sec) 
Heartbeat CPU 0 instructions: 910000000 cycles: 775087239 heartbeat IPC: 1.70602 cumulative IPC: 1.09221 (Simulation time: 0 hr 25 min 59 sec) 
Heartbeat CPU 0 instructions: 920000001 cycles: 780903354 heartbeat IPC: 1.71936 cumulative IPC: 1.09709 (Simulation time: 0 hr 26 min 15 sec) 
Heartbeat CPU 0 instructions: 930000001 cycles: 788674626 heartbeat IPC: 1.28679 cumulative IPC: 1.09904 (Simulation time: 0 hr 26 min 30 sec) 
Heartbeat CPU 0 instructions: 940000000 cycles: 797265355 heartbeat IPC: 1.16405 cumulative IPC: 1.09977 (Simulation time: 0 hr 26 min 44 sec) 
Heartbeat CPU 0 instructions: 950000003 cycles: 805445341 heartbeat IPC: 1.2225 cumulative IPC: 1.10107 (Simulation time: 0 hr 26 min 59 sec) 
Heartbeat CPU 0 instructions: 960000001 cycles: 813513163 heartbeat IPC: 1.23949 cumulative IPC: 1.1025 (Simulation time: 0 hr 27 min 13 sec) 
Heartbeat CPU 0 instructions: 970000000 cycles: 821843102 heartbeat IPC: 1.20049 cumulative IPC: 1.10354 (Simulation time: 0 hr 27 min 29 sec) 
Heartbeat CPU 0 instructions: 980000002 cycles: 831513924 heartbeat IPC: 1.03404 cumulative IPC: 1.1027 (Simulation time: 0 hr 27 min 45 sec) 
Heartbeat CPU 0 instructions: 990000000 cycles: 853135837 heartbeat IPC: 0.462494 cumulative IPC: 1.08581 (Simulation time: 0 hr 28 min 15 sec) 
Heartbeat CPU 0 instructions: 1000000000 cycles: 859653008 heartbeat IPC: 1.53441 cumulative IPC: 1.08935 (Simulation time: 0 hr 28 min 32 sec) 
Heartbeat CPU 0 instructions: 1010000000 cycles: 865479548 heartbeat IPC: 1.71628 cumulative IPC: 1.09374 (Simulation time: 0 hr 28 min 49 sec) 
Heartbeat CPU 0 instructions: 1020000000 cycles: 871507876 heartbeat IPC: 1.65883 cumulative IPC: 1.0978 (Simulation time: 0 hr 29 min 5 sec) 
Heartbeat CPU 0 instructions: 1030000002 cycles: 879893320 heartbeat IPC: 1.19254 cumulative IPC: 1.09874 (Simulation time: 0 hr 29 min 20 sec) 
Heartbeat CPU 0 instructions: 1040000000 cycles: 887454166 heartbeat IPC: 1.3226 cumulative IPC: 1.10072 (Simulation time: 0 hr 29 min 35 sec) 
Heartbeat CPU 0 instructions: 1050000001 cycles: 895109086 heartbeat IPC: 1.30635 cumulative IPC: 1.10255 (Simulation time: 0 hr 29 min 50 sec) 
Heartbeat CPU 0 instructions: 1060000003 cycles: 903855312 heartbeat IPC: 1.14335 cumulative IPC: 1.10296 (Simulation time: 0 hr 30 min 5 sec) 
Heartbeat CPU 0 instructions: 1070000002 cycles: 912345294 heartbeat IPC: 1.17786 cumulative IPC: 1.10368 (Simulation time: 0 hr 30 min 19 sec) 
Heartbeat CPU 0 instructions: 1080000003 cycles: 931364239 heartbeat IPC: 0.525792 cumulative IPC: 1.09144 (Simulation time: 0 hr 30 min 48 sec) 
Heartbeat CPU 0 instructions: 1090000003 cycles: 943164688 heartbeat IPC: 0.847425 cumulative IPC: 1.08828 (Simulation time: 0 hr 31 min 7 sec) 
Heartbeat CPU 0 instructions: 1100000000 cycles: 949113871 heartbeat IPC: 1.6809 cumulative IPC: 1.09213 (Simulation time: 0 hr 31 min 24 sec) 
Finished CPU 0 instructions: 1000000003 cycles: 915643705 cumulative IPC: 1.09213 (Simulation time: 0 hr 31 min 24 sec) 

ChampSim completed all CPUs

Region of Interest Statistics

CPU 0 cumulative IPC: 1.09213 instructions: 1000000003 cycles: 915643705
L1D TOTAL     ACCESS:  210108314  HIT:  199894575  MISS:   10213739
L1D LOAD      ACCESS:  126593418  HIT:  123125912  MISS:    3467506
L1D RFO       ACCESS:   83514896  HIT:   76768663  MISS:    6746233
L1D PREFETCH  ACCESS:          0  HIT:          0  MISS:          0
L1D WRITEBACK ACCESS:          0  HIT:          0  MISS:          0
L1D PREFETCH  REQUESTED:          0  ISSUED:          0  USEFUL:          0  USELESS:          0
L1D AVERAGE MISS LATENCY: 299.097 cycles
L1I TOTAL     ACCESS:  166900991  HIT:  166492784  MISS:     408207
L1I LOAD      ACCESS:  166900991  HIT:  166492784  MISS:     408207
L1I RFO       ACCESS:          0  HIT:          0  MISS:          0
L1I PREFETCH  ACCESS:          0  HIT:          0  MISS:          0
L1I WRITEBACK ACCESS:          0  HIT:          0  MISS:          0
L1I PREFETCH  REQUESTED:          0  ISSUED:          0  USEFUL:          0  USELESS:          0
L1I AVERAGE MISS LATENCY: 71.8319 cycles
L2C TOTAL     ACCESS:   17800590  HIT:   11245029  MISS:    6555561
L2C LOAD      ACCESS:    3875512  HIT:    2839211  MISS:    1036301
L2C RFO       ACCESS:    6746181  HIT:    1230034  MISS:    5516147
L2C PREFETCH  ACCESS:          0  HIT:          0  MISS:          0
L2C WRITEBACK ACCESS:    7178897  HIT:    7175784  MISS:       3113
L2C PREFETCH  REQUESTED:          0  ISSUED:          0  USEFUL:          0  USELESS:          0
L2C AVERAGE MISS LATENCY: 449.808 cycles
LLC TOTAL     ACCESS:   12238949  HIT:    2069224  MISS:   10169725
LLC LOAD      ACCESS:    1036230  HIT:     664763  MISS:     371467
LLC RFO       ACCESS:    5516086  HIT:     371774  MISS:    5144312
LLC PREFETCH  ACCESS:          0  HIT:          0  MISS:          0
LLC WRITEBACK ACCESS:    5686633  HIT:    1032687  MISS:    4653946
LLC PREFETCH  REQUESTED:          0  ISSUED:          0  USEFUL:          0  USELESS:          0
LLC AVERAGE MISS LATENCY: 261.861 cycles
Major fault: 0 Minor fault: 7146

DRAM Statistics
 CHANNEL 0
 RQ ROW_BUFFER_HIT:    2275106  ROW_BUFFER_MISS:    3240668
 DBUS_CONGESTED:    8533948
 WQ ROW_BUFFER_HIT:    2019195  ROW_BUFFER_MISS:    3174290  FULL:    5344864

 AVG_CONGESTED_CYCLE: 6

CPU 0 Branch Prediction Accuracy: 93.7395% MPKI: 8.37522 Average ROB Occupancy at Mispredict: 31.6093

Branch types
NOT_BRANCH: 866220376 86.622%
BRANCH_DIRECT_JUMP: 7799639 0.779964%
BRANCH_INDIRECT: 50546 0.0050546%
BRANCH_CONDITIONAL: 115170924 11.5171%
BRANCH_DIRECT_CALL: 5379115 0.537911%
BRANCH_INDIRECT_CALL: 0 0%
BRANCH_RETURN: 5379110 0.537911%
BRANCH_OTHER: 0 0%

