
*** ChampSim Multicore Out-of-Order Simulator ***

Warmup Instructions: 100000000
Simulation Instructions: 1000000000
Number of CPUs: 1
LLC sets: 2048
LLC ways: 16
Off-chip DRAM Size: 4096 MB Channels: 1 Width: 64-bit Data Rate: 3200 MT/s

CPU 0 runs /scratch/user/kevin.weston/dpc3-traces/627.champsimtrace.xz
CPU 0 Bimodal branch predictor
Per-line RRPV Initialized
PRRIP State Initialized
Assign SAMPLER_SET[0]: 454  LLC: 2048
SAMPLER_SET[0]: 454
Assign SAMPLER_SET[1]: 1662  LLC: 2048
SAMPLER_SET[1]: 1662
Assign SAMPLER_SET[2]: 1921  LLC: 2048
SAMPLER_SET[2]: 1921
Assign SAMPLER_SET[3]: 1131  LLC: 2048
SAMPLER_SET[3]: 1131
Assign SAMPLER_SET[4]: 331  LLC: 2048
SAMPLER_SET[4]: 331
Assign SAMPLER_SET[5]: 1531  LLC: 2048
SAMPLER_SET[5]: 1531
Assign SAMPLER_SET[6]: 482  LLC: 2048
SAMPLER_SET[6]: 482
Assign SAMPLER_SET[7]: 1275  LLC: 2048
SAMPLER_SET[7]: 1275
Assign SAMPLER_SET[8]: 1876  LLC: 2048
SAMPLER_SET[8]: 1876
Assign SAMPLER_SET[9]: 2038  LLC: 2048
SAMPLER_SET[9]: 2038
Assign SAMPLER_SET[10]: 701  LLC: 2048
SAMPLER_SET[10]: 701
Assign SAMPLER_SET[11]: 479  LLC: 2048
SAMPLER_SET[11]: 479
Assign SAMPLER_SET[12]: 892  LLC: 2048
SAMPLER_SET[12]: 892
Assign SAMPLER_SET[13]: 1820  LLC: 2048
SAMPLER_SET[13]: 1820
Assign SAMPLER_SET[14]: 1505  LLC: 2048
SAMPLER_SET[14]: 1505
Assign SAMPLER_SET[15]: 1159  LLC: 2048
SAMPLER_SET[15]: 1159
Assign SAMPLER_SET[16]: 513  LLC: 2048
SAMPLER_SET[16]: 513
Assign SAMPLER_SET[17]: 703  LLC: 2048
SAMPLER_SET[17]: 703
Assign SAMPLER_SET[18]: 561  LLC: 2048
SAMPLER_SET[18]: 561
Assign SAMPLER_SET[19]: 990  LLC: 2048
SAMPLER_SET[19]: 990
Assign SAMPLER_SET[20]: 342  LLC: 2048
SAMPLER_SET[20]: 342
Assign SAMPLER_SET[21]: 882  LLC: 2048
SAMPLER_SET[21]: 882
Assign SAMPLER_SET[22]: 15  LLC: 2048
SAMPLER_SET[22]: 15
Assign SAMPLER_SET[23]: 71  LLC: 2048
SAMPLER_SET[23]: 71
Assign SAMPLER_SET[24]: 1127  LLC: 2048
SAMPLER_SET[24]: 1127
Assign SAMPLER_SET[25]: 1382  LLC: 2048
SAMPLER_SET[25]: 1382
Assign SAMPLER_SET[26]: 647  LLC: 2048
SAMPLER_SET[26]: 647
Assign SAMPLER_SET[27]: 857  LLC: 2048
SAMPLER_SET[27]: 857
Assign SAMPLER_SET[28]: 1450  LLC: 2048
SAMPLER_SET[28]: 1450
Assign SAMPLER_SET[29]: 1160  LLC: 2048
SAMPLER_SET[29]: 1160
Assign SAMPLER_SET[30]: 1852  LLC: 2048
SAMPLER_SET[30]: 1852
Assign SAMPLER_SET[31]: 1881  LLC: 2048
SAMPLER_SET[31]: 1881
Assign SAMPLER_SET[32]: 1770  LLC: 2048
SAMPLER_SET[32]: 1770
Assign SAMPLER_SET[33]: 1622  LLC: 2048
SAMPLER_SET[33]: 1622
Assign SAMPLER_SET[34]: 275  LLC: 2048
SAMPLER_SET[34]: 275
Assign SAMPLER_SET[35]: 635  LLC: 2048
SAMPLER_SET[35]: 635
Assign SAMPLER_SET[36]: 466  LLC: 2048
SAMPLER_SET[36]: 466
Assign SAMPLER_SET[37]: 1413  LLC: 2048
SAMPLER_SET[37]: 1413
Assign SAMPLER_SET[38]: 417  LLC: 2048
SAMPLER_SET[38]: 417
Assign SAMPLER_SET[39]: 472  LLC: 2048
SAMPLER_SET[39]: 472
Assign SAMPLER_SET[40]: 1340  LLC: 2048
SAMPLER_SET[40]: 1340
Assign SAMPLER_SET[41]: 852  LLC: 2048
SAMPLER_SET[41]: 852
Assign SAMPLER_SET[42]: 1365  LLC: 2048
SAMPLER_SET[42]: 1365
Assign SAMPLER_SET[43]: 47  LLC: 2048
SAMPLER_SET[43]: 47
Assign SAMPLER_SET[44]: 823  LLC: 2048
SAMPLER_SET[44]: 823
Assign SAMPLER_SET[45]: 686  LLC: 2048
SAMPLER_SET[45]: 686
Assign SAMPLER_SET[46]: 1637  LLC: 2048
SAMPLER_SET[46]: 1637
Assign SAMPLER_SET[47]: 1115  LLC: 2048
SAMPLER_SET[47]: 1115
Assign SAMPLER_SET[48]: 986  LLC: 2048
SAMPLER_SET[48]: 986
Assign SAMPLER_SET[49]: 258  LLC: 2048
SAMPLER_SET[49]: 258
Assign SAMPLER_SET[50]: 633  LLC: 2048
SAMPLER_SET[50]: 633
Assign SAMPLER_SET[51]: 920  LLC: 2048
SAMPLER_SET[51]: 920
Assign SAMPLER_SET[52]: 204  LLC: 2048
SAMPLER_SET[52]: 204
Assign SAMPLER_SET[53]: 227  LLC: 2048
SAMPLER_SET[53]: 227
Assign SAMPLER_SET[54]: 1818  LLC: 2048
SAMPLER_SET[54]: 1818
Assign SAMPLER_SET[55]: 886  LLC: 2048
SAMPLER_SET[55]: 886
Assign SAMPLER_SET[56]: 1422  LLC: 2048
SAMPLER_SET[56]: 1422
Assign SAMPLER_SET[57]: 607  LLC: 2048
SAMPLER_SET[57]: 607
Assign SAMPLER_SET[58]: 217  LLC: 2048
SAMPLER_SET[58]: 217
Assign SAMPLER_SET[59]: 1945  LLC: 2048
SAMPLER_SET[59]: 1945
Assign SAMPLER_SET[60]: 143  LLC: 2048
SAMPLER_SET[60]: 143
Assign SAMPLER_SET[61]: 1311  LLC: 2048
SAMPLER_SET[61]: 1311
Assign SAMPLER_SET[62]: 319  LLC: 2048
SAMPLER_SET[62]: 319
Assign SAMPLER_SET[63]: 1846  LLC: 2048
SAMPLER_SET[63]: 1846
Assign SAMPLER_SET[64]: 238  LLC: 2048
SAMPLER_SET[64]: 238
Assign SAMPLER_SET[65]: 67  LLC: 2048
SAMPLER_SET[65]: 67
Assign SAMPLER_SET[66]: 1912  LLC: 2048
SAMPLER_SET[66]: 1912
Assign SAMPLER_SET[67]: 1613  LLC: 2048
SAMPLER_SET[67]: 1613
Assign SAMPLER_SET[68]: 1293  LLC: 2048
SAMPLER_SET[68]: 1293
Assign SAMPLER_SET[69]: 1018  LLC: 2048
SAMPLER_SET[69]: 1018
Assign SAMPLER_SET[70]: 1982  LLC: 2048
SAMPLER_SET[70]: 1982
Assign SAMPLER_SET[71]: 1702  LLC: 2048
SAMPLER_SET[71]: 1702
Assign SAMPLER_SET[72]: 1498  LLC: 2048
SAMPLER_SET[72]: 1498
Assign SAMPLER_SET[73]: 228  LLC: 2048
SAMPLER_SET[73]: 228
Assign SAMPLER_SET[74]: 1414  LLC: 2048
SAMPLER_SET[74]: 1414
Assign SAMPLER_SET[75]: 1166  LLC: 2048
SAMPLER_SET[75]: 1166
Assign SAMPLER_SET[76]: 732  LLC: 2048
SAMPLER_SET[76]: 732
Assign SAMPLER_SET[77]: 297  LLC: 2048
SAMPLER_SET[77]: 297
Assign SAMPLER_SET[78]: 1133  LLC: 2048
SAMPLER_SET[78]: 1133
Assign SAMPLER_SET[79]: 846  LLC: 2048
SAMPLER_SET[79]: 846
Assign SAMPLER_SET[80]: 767  LLC: 2048
SAMPLER_SET[80]: 767
Assign SAMPLER_SET[81]: 1878  LLC: 2048
SAMPLER_SET[81]: 1878
Assign SAMPLER_SET[82]: 993  LLC: 2048
SAMPLER_SET[82]: 993
Assign SAMPLER_SET[83]: 1392  LLC: 2048
SAMPLER_SET[83]: 1392
Assign SAMPLER_SET[84]: 1568  LLC: 2048
SAMPLER_SET[84]: 1568
Assign SAMPLER_SET[85]: 1787  LLC: 2048
SAMPLER_SET[85]: 1787
Assign SAMPLER_SET[86]: 399  LLC: 2048
SAMPLER_SET[86]: 399
Assign SAMPLER_SET[87]: 1201  LLC: 2048
SAMPLER_SET[87]: 1201
Assign SAMPLER_SET[88]: 856  LLC: 2048
SAMPLER_SET[88]: 856
Assign SAMPLER_SET[89]: 773  LLC: 2048
SAMPLER_SET[89]: 773
Assign SAMPLER_SET[90]: 1680  LLC: 2048
SAMPLER_SET[90]: 1680
Assign SAMPLER_SET[91]: 1477  LLC: 2048
SAMPLER_SET[91]: 1477
Assign SAMPLER_SET[92]: 9  LLC: 2048
SAMPLER_SET[92]: 9
Assign SAMPLER_SET[93]: 1500  LLC: 2048
SAMPLER_SET[93]: 1500
Assign SAMPLER_SET[94]: 851  LLC: 2048
SAMPLER_SET[94]: 851
Assign SAMPLER_SET[95]: 973  LLC: 2048
SAMPLER_SET[95]: 973
Assign SAMPLER_SET[96]: 938  LLC: 2048
SAMPLER_SET[96]: 938
Assign SAMPLER_SET[97]: 1851  LLC: 2048
SAMPLER_SET[97]: 1851
Assign SAMPLER_SET[98]: 1608  LLC: 2048
SAMPLER_SET[98]: 1608
Assign SAMPLER_SET[99]: 1945  LLC: 2048
Assign SAMPLER_SET[99]: 1106  LLC: 2048
SAMPLER_SET[99]: 1106
Assign SAMPLER_SET[100]: 979  LLC: 2048
SAMPLER_SET[100]: 979
Assign SAMPLER_SET[101]: 338  LLC: 2048
SAMPLER_SET[101]: 338
Assign SAMPLER_SET[102]: 1693  LLC: 2048
SAMPLER_SET[102]: 1693
Assign SAMPLER_SET[103]: 6  LLC: 2048
SAMPLER_SET[103]: 6
Assign SAMPLER_SET[104]: 671  LLC: 2048
SAMPLER_SET[104]: 671
Assign SAMPLER_SET[105]: 490  LLC: 2048
SAMPLER_SET[105]: 490
Assign SAMPLER_SET[106]: 1461  LLC: 2048
SAMPLER_SET[106]: 1461
Assign SAMPLER_SET[107]: 1730  LLC: 2048
SAMPLER_SET[107]: 1730
Assign SAMPLER_SET[108]: 1030  LLC: 2048
SAMPLER_SET[108]: 1030
Assign SAMPLER_SET[109]: 19  LLC: 2048
SAMPLER_SET[109]: 19
Assign SAMPLER_SET[110]: 920  LLC: 2048
Assign SAMPLER_SET[110]: 329  LLC: 2048
SAMPLER_SET[110]: 329
Assign SAMPLER_SET[111]: 1714  LLC: 2048
SAMPLER_SET[111]: 1714
Assign SAMPLER_SET[112]: 1  LLC: 2048
SAMPLER_SET[112]: 1
Assign SAMPLER_SET[113]: 1822  LLC: 2048
SAMPLER_SET[113]: 1822
Assign SAMPLER_SET[114]: 172  LLC: 2048
SAMPLER_SET[114]: 172
Assign SAMPLER_SET[115]: 1586  LLC: 2048
SAMPLER_SET[115]: 1586
Assign SAMPLER_SET[116]: 648  LLC: 2048
SAMPLER_SET[116]: 648
Assign SAMPLER_SET[117]: 1329  LLC: 2048
SAMPLER_SET[117]: 1329
Assign SAMPLER_SET[118]: 668  LLC: 2048
SAMPLER_SET[118]: 668
Assign SAMPLER_SET[119]: 1874  LLC: 2048
SAMPLER_SET[119]: 1874
Assign SAMPLER_SET[120]: 70  LLC: 2048
SAMPLER_SET[120]: 70
Assign SAMPLER_SET[121]: 661  LLC: 2048
SAMPLER_SET[121]: 661
Assign SAMPLER_SET[122]: 1649  LLC: 2048
SAMPLER_SET[122]: 1649
Assign SAMPLER_SET[123]: 1590  LLC: 2048
SAMPLER_SET[123]: 1590
Assign SAMPLER_SET[124]: 911  LLC: 2048
SAMPLER_SET[124]: 911
Assign SAMPLER_SET[125]: 1367  LLC: 2048
SAMPLER_SET[125]: 1367
Assign SAMPLER_SET[126]: 1782  LLC: 2048
SAMPLER_SET[126]: 1782
Assign SAMPLER_SET[127]: 569  LLC: 2048
SAMPLER_SET[127]: 569
Heartbeat CPU 0 instructions: 10000003 cycles: 3428585 heartbeat IPC: 2.91666 cumulative IPC: 2.91666 (Simulation time: 0 hr 0 min 17 sec) 
Heartbeat CPU 0 instructions: 20000001 cycles: 6666208 heartbeat IPC: 3.08869 cumulative IPC: 3.00021 (Simulation time: 0 hr 0 min 37 sec) 
Heartbeat CPU 0 instructions: 30000003 cycles: 9897313 heartbeat IPC: 3.09492 cumulative IPC: 3.03113 (Simulation time: 0 hr 0 min 57 sec) 
Heartbeat CPU 0 instructions: 40000003 cycles: 13067403 heartbeat IPC: 3.15448 cumulative IPC: 3.06105 (Simulation time: 0 hr 1 min 16 sec) 
Heartbeat CPU 0 instructions: 50000002 cycles: 16395848 heartbeat IPC: 3.00441 cumulative IPC: 3.04955 (Simulation time: 0 hr 1 min 36 sec) 
Heartbeat CPU 0 instructions: 60000003 cycles: 19757280 heartbeat IPC: 2.97492 cumulative IPC: 3.03686 (Simulation time: 0 hr 1 min 56 sec) 
Heartbeat CPU 0 instructions: 70000002 cycles: 23052057 heartbeat IPC: 3.03511 cumulative IPC: 3.03661 (Simulation time: 0 hr 2 min 15 sec) 
Heartbeat CPU 0 instructions: 80000002 cycles: 26415751 heartbeat IPC: 2.97292 cumulative IPC: 3.0285 (Simulation time: 0 hr 2 min 34 sec) 
Heartbeat CPU 0 instructions: 90000001 cycles: 29973202 heartbeat IPC: 2.811 cumulative IPC: 3.00268 (Simulation time: 0 hr 2 min 53 sec) 
Heartbeat CPU 0 instructions: 100000001 cycles: 33470749 heartbeat IPC: 2.85915 cumulative IPC: 2.98768 (Simulation time: 0 hr 3 min 13 sec) 

Warmup complete CPU 0 instructions: 100000001 cycles: 33470749 (Simulation time: 0 hr 3 min 13 sec) 

Heartbeat CPU 0 instructions: 110000000 cycles: 53432757 heartbeat IPC: 0.500952 cumulative IPC: 0.500952 (Simulation time: 0 hr 3 min 39 sec) 
Heartbeat CPU 0 instructions: 120000002 cycles: 59853722 heartbeat IPC: 1.5574 cumulative IPC: 0.758065 (Simulation time: 0 hr 3 min 56 sec) 
Heartbeat CPU 0 instructions: 130000000 cycles: 65706964 heartbeat IPC: 1.70845 cumulative IPC: 0.93063 (Simulation time: 0 hr 4 min 12 sec) 
Heartbeat CPU 0 instructions: 140000001 cycles: 71563740 heartbeat IPC: 1.70742 cumulative IPC: 1.05006 (Simulation time: 0 hr 4 min 28 sec) 
Heartbeat CPU 0 instructions: 150000002 cycles: 79644452 heartbeat IPC: 1.23751 cumulative IPC: 1.08287 (Simulation time: 0 hr 4 min 42 sec) 
Heartbeat CPU 0 instructions: 160000001 cycles: 88459133 heartbeat IPC: 1.13447 cumulative IPC: 1.09114 (Simulation time: 0 hr 4 min 57 sec) 
Heartbeat CPU 0 instructions: 170000001 cycles: 97027523 heartbeat IPC: 1.16708 cumulative IPC: 1.10138 (Simulation time: 0 hr 5 min 11 sec) 
Heartbeat CPU 0 instructions: 180000001 cycles: 105344667 heartbeat IPC: 1.20234 cumulative IPC: 1.11306 (Simulation time: 0 hr 5 min 26 sec) 
Heartbeat CPU 0 instructions: 190000000 cycles: 113801050 heartbeat IPC: 1.18254 cumulative IPC: 1.12037 (Simulation time: 0 hr 5 min 42 sec) 
Heartbeat CPU 0 instructions: 200000003 cycles: 123584990 heartbeat IPC: 1.02208 cumulative IPC: 1.1097 (Simulation time: 0 hr 5 min 57 sec) 
Heartbeat CPU 0 instructions: 210000001 cycles: 144661291 heartbeat IPC: 0.474466 cumulative IPC: 0.989293 (Simulation time: 0 hr 6 min 24 sec) 
Heartbeat CPU 0 instructions: 220000000 cycles: 151477389 heartbeat IPC: 1.46711 cumulative IPC: 1.01689 (Simulation time: 0 hr 6 min 40 sec) 
Heartbeat CPU 0 instructions: 230000003 cycles: 157319467 heartbeat IPC: 1.71172 cumulative IPC: 1.04967 (Simulation time: 0 hr 6 min 57 sec) 
Heartbeat CPU 0 instructions: 240000001 cycles: 163139673 heartbeat IPC: 1.71815 cumulative IPC: 1.07967 (Simulation time: 0 hr 7 min 13 sec) 
Heartbeat CPU 0 instructions: 250000000 cycles: 170439549 heartbeat IPC: 1.36989 cumulative IPC: 1.09514 (Simulation time: 0 hr 7 min 28 sec) 
Heartbeat CPU 0 instructions: 260000000 cycles: 179132296 heartbeat IPC: 1.15038 cumulative IPC: 1.09844 (Simulation time: 0 hr 7 min 42 sec) 
Heartbeat CPU 0 instructions: 270000000 cycles: 187723824 heartbeat IPC: 1.16394 cumulative IPC: 1.10208 (Simulation time: 0 hr 7 min 57 sec) 
Heartbeat CPU 0 instructions: 280000002 cycles: 195082071 heartbeat IPC: 1.35902 cumulative IPC: 1.11378 (Simulation time: 0 hr 8 min 11 sec) 
Heartbeat CPU 0 instructions: 290000003 cycles: 204281872 heartbeat IPC: 1.08698 cumulative IPC: 1.11234 (Simulation time: 0 hr 8 min 26 sec) 
Heartbeat CPU 0 instructions: 300000003 cycles: 213681419 heartbeat IPC: 1.06388 cumulative IPC: 1.10981 (Simulation time: 0 hr 8 min 41 sec) 
Heartbeat CPU 0 instructions: 310000000 cycles: 234620922 heartbeat IPC: 0.477566 cumulative IPC: 1.044 (Simulation time: 0 hr 9 min 10 sec) 
Heartbeat CPU 0 instructions: 320000000 cycles: 242514014 heartbeat IPC: 1.26693 cumulative IPC: 1.05241 (Simulation time: 0 hr 9 min 24 sec) 
Heartbeat CPU 0 instructions: 330000000 cycles: 248363878 heartbeat IPC: 1.70944 cumulative IPC: 1.0703 (Simulation time: 0 hr 9 min 41 sec) 
Heartbeat CPU 0 instructions: 340000000 cycles: 254149298 heartbeat IPC: 1.72848 cumulative IPC: 1.08755 (Simulation time: 0 hr 9 min 57 sec) 
Heartbeat CPU 0 instructions: 350000000 cycles: 260493084 heartbeat IPC: 1.57635 cumulative IPC: 1.10121 (Simulation time: 0 hr 10 min 12 sec) 
Heartbeat CPU 0 instructions: 360000000 cycles: 268238801 heartbeat IPC: 1.29104 cumulative IPC: 1.10748 (Simulation time: 0 hr 10 min 27 sec) 
Heartbeat CPU 0 instructions: 370000000 cycles: 276968984 heartbeat IPC: 1.14545 cumulative IPC: 1.10884 (Simulation time: 0 hr 10 min 41 sec) 
Heartbeat CPU 0 instructions: 380000000 cycles: 284989211 heartbeat IPC: 1.24685 cumulative IPC: 1.11324 (Simulation time: 0 hr 10 min 56 sec) 
Heartbeat CPU 0 instructions: 390000000 cycles: 293567983 heartbeat IPC: 1.16567 cumulative IPC: 1.11497 (Simulation time: 0 hr 11 min 10 sec) 
Heartbeat CPU 0 instructions: 400000000 cycles: 301785667 heartbeat IPC: 1.21689 cumulative IPC: 1.11809 (Simulation time: 0 hr 11 min 25 sec) 
Heartbeat CPU 0 instructions: 410000001 cycles: 313894793 heartbeat IPC: 0.825823 cumulative IPC: 1.10547 (Simulation time: 0 hr 11 min 43 sec) 
Heartbeat CPU 0 instructions: 420000001 cycles: 332658776 heartbeat IPC: 0.532936 cumulative IPC: 1.06956 (Simulation time: 0 hr 12 min 8 sec) 
Heartbeat CPU 0 instructions: 430000003 cycles: 338826101 heartbeat IPC: 1.62145 cumulative IPC: 1.08071 (Simulation time: 0 hr 12 min 24 sec) 
Heartbeat CPU 0 instructions: 440000000 cycles: 344660186 heartbeat IPC: 1.71406 cumulative IPC: 1.09258 (Simulation time: 0 hr 12 min 40 sec) 
Heartbeat CPU 0 instructions: 450000000 cycles: 350616882 heartbeat IPC: 1.67878 cumulative IPC: 1.10359 (Simulation time: 0 hr 12 min 56 sec) 
Heartbeat CPU 0 instructions: 460000000 cycles: 358353738 heartbeat IPC: 1.29251 cumulative IPC: 1.10809 (Simulation time: 0 hr 13 min 11 sec) 
Heartbeat CPU 0 instructions: 470000001 cycles: 367039877 heartbeat IPC: 1.15126 cumulative IPC: 1.10922 (Simulation time: 0 hr 13 min 25 sec) 
Heartbeat CPU 0 instructions: 480000001 cycles: 375349097 heartbeat IPC: 1.20348 cumulative IPC: 1.11151 (Simulation time: 0 hr 13 min 39 sec) 
Heartbeat CPU 0 instructions: 490000003 cycles: 383735121 heartbeat IPC: 1.19246 cumulative IPC: 1.11344 (Simulation time: 0 hr 13 min 54 sec) 
Heartbeat CPU 0 instructions: 500000001 cycles: 392000530 heartbeat IPC: 1.20986 cumulative IPC: 1.11567 (Simulation time: 0 hr 14 min 8 sec) 
Heartbeat CPU 0 instructions: 510000001 cycles: 402304627 heartbeat IPC: 0.970488 cumulative IPC: 1.11161 (Simulation time: 0 hr 14 min 24 sec) 
Heartbeat CPU 0 instructions: 520000001 cycles: 422970386 heartbeat IPC: 0.483892 cumulative IPC: 1.07831 (Simulation time: 0 hr 14 min 50 sec) 
Heartbeat CPU 0 instructions: 530000001 cycles: 429171009 heartbeat IPC: 1.61274 cumulative IPC: 1.08668 (Simulation time: 0 hr 15 min 7 sec) 
Heartbeat CPU 0 instructions: 540000000 cycles: 435021510 heartbeat IPC: 1.70926 cumulative IPC: 1.09575 (Simulation time: 0 hr 15 min 23 sec) 
Heartbeat CPU 0 instructions: 550000000 cycles: 441019857 heartbeat IPC: 1.66713 cumulative IPC: 1.10416 (Simulation time: 0 hr 15 min 39 sec) 
Heartbeat CPU 0 instructions: 560000000 cycles: 448409990 heartbeat IPC: 1.35316 cumulative IPC: 1.1086 (Simulation time: 0 hr 15 min 53 sec) 
Heartbeat CPU 0 instructions: 570000000 cycles: 456884647 heartbeat IPC: 1.17999 cumulative IPC: 1.11002 (Simulation time: 0 hr 16 min 8 sec) 
Heartbeat CPU 0 instructions: 580000001 cycles: 465320465 heartbeat IPC: 1.18542 cumulative IPC: 1.1115 (Simulation time: 0 hr 16 min 22 sec) 
Heartbeat CPU 0 instructions: 590000000 cycles: 473686171 heartbeat IPC: 1.19536 cumulative IPC: 1.11309 (Simulation time: 0 hr 16 min 36 sec) 
Heartbeat CPU 0 instructions: 600000002 cycles: 482173280 heartbeat IPC: 1.17826 cumulative IPC: 1.11432 (Simulation time: 0 hr 16 min 51 sec) 
Heartbeat CPU 0 instructions: 610000003 cycles: 492192708 heartbeat IPC: 0.998061 cumulative IPC: 1.11178 (Simulation time: 0 hr 17 min 7 sec) 
Heartbeat CPU 0 instructions: 620000002 cycles: 512863358 heartbeat IPC: 0.483778 cumulative IPC: 1.08471 (Simulation time: 0 hr 17 min 33 sec) 
Heartbeat CPU 0 instructions: 630000000 cycles: 519216573 heartbeat IPC: 1.57401 cumulative IPC: 1.09111 (Simulation time: 0 hr 17 min 50 sec) 
Heartbeat CPU 0 instructions: 640000002 cycles: 525079447 heartbeat IPC: 1.70565 cumulative IPC: 1.09843 (Simulation time: 0 hr 18 min 6 sec) 
Heartbeat CPU 0 instructions: 650000000 cycles: 531693109 heartbeat IPC: 1.51202 cumulative IPC: 1.10392 (Simulation time: 0 hr 18 min 21 sec) 
Heartbeat CPU 0 instructions: 660000000 cycles: 540364125 heartbeat IPC: 1.15327 cumulative IPC: 1.10477 (Simulation time: 0 hr 18 min 35 sec) 
Heartbeat CPU 0 instructions: 670000000 cycles: 549124038 heartbeat IPC: 1.14156 cumulative IPC: 1.10539 (Simulation time: 0 hr 18 min 49 sec) 
Heartbeat CPU 0 instructions: 680000000 cycles: 556838975 heartbeat IPC: 1.29619 cumulative IPC: 1.10821 (Simulation time: 0 hr 19 min 4 sec) 
Heartbeat CPU 0 instructions: 690000002 cycles: 565560839 heartbeat IPC: 1.14654 cumulative IPC: 1.10883 (Simulation time: 0 hr 19 min 19 sec) 
Heartbeat CPU 0 instructions: 700000001 cycles: 575315650 heartbeat IPC: 1.02514 cumulative IPC: 1.10733 (Simulation time: 0 hr 19 min 34 sec) 
Heartbeat CPU 0 instructions: 710000001 cycles: 596263930 heartbeat IPC: 0.477366 cumulative IPC: 1.08388 (Simulation time: 0 hr 20 min 1 sec) 
Heartbeat CPU 0 instructions: 720000003 cycles: 602995816 heartbeat IPC: 1.48547 cumulative IPC: 1.08863 (Simulation time: 0 hr 20 min 18 sec) 
Heartbeat CPU 0 instructions: 730000000 cycles: 608938471 heartbeat IPC: 1.68275 cumulative IPC: 1.09476 (Simulation time: 0 hr 20 min 35 sec) 
Heartbeat CPU 0 instructions: 740000002 cycles: 615968827 heartbeat IPC: 1.4224 cumulative IPC: 1.09872 (Simulation time: 0 hr 20 min 50 sec) 
Heartbeat CPU 0 instructions: 750000002 cycles: 624319663 heartbeat IPC: 1.19748 cumulative IPC: 1.10011 (Simulation time: 0 hr 21 min 4 sec) 
Heartbeat CPU 0 instructions: 760000000 cycles: 633053910 heartbeat IPC: 1.14492 cumulative IPC: 1.10076 (Simulation time: 0 hr 21 min 18 sec) 
Heartbeat CPU 0 instructions: 770000000 cycles: 640789417 heartbeat IPC: 1.29274 cumulative IPC: 1.10321 (Simulation time: 0 hr 21 min 33 sec) 
Heartbeat CPU 0 instructions: 780000003 cycles: 649671442 heartbeat IPC: 1.12587 cumulative IPC: 1.10354 (Simulation time: 0 hr 21 min 48 sec) 
Heartbeat CPU 0 instructions: 790000000 cycles: 659172567 heartbeat IPC: 1.05251 cumulative IPC: 1.10276 (Simulation time: 0 hr 22 min 3 sec) 
Heartbeat CPU 0 instructions: 800000000 cycles: 680196993 heartbeat IPC: 0.475637 cumulative IPC: 1.08237 (Simulation time: 0 hr 22 min 30 sec) 
Heartbeat CPU 0 instructions: 810000003 cycles: 687163694 heartbeat IPC: 1.4354 cumulative IPC: 1.08614 (Simulation time: 0 hr 22 min 46 sec) 
Heartbeat CPU 0 instructions: 820000002 cycles: 692993265 heartbeat IPC: 1.71539 cumulative IPC: 1.0917 (Simulation time: 0 hr 23 min 3 sec) 
Heartbeat CPU 0 instructions: 830000001 cycles: 700398580 heartbeat IPC: 1.35038 cumulative IPC: 1.09457 (Simulation time: 0 hr 23 min 18 sec) 
Heartbeat CPU 0 instructions: 840000000 cycles: 708154571 heartbeat IPC: 1.28933 cumulative IPC: 1.09681 (Simulation time: 0 hr 23 min 33 sec) 
Heartbeat CPU 0 instructions: 850000001 cycles: 716871411 heartbeat IPC: 1.1472 cumulative IPC: 1.09745 (Simulation time: 0 hr 23 min 47 sec) 
Heartbeat CPU 0 instructions: 860000002 cycles: 724349365 heartbeat IPC: 1.33726 cumulative IPC: 1.10005 (Simulation time: 0 hr 24 min 2 sec) 
Heartbeat CPU 0 instructions: 870000000 cycles: 733484262 heartbeat IPC: 1.0947 cumulative IPC: 1.09998 (Simulation time: 0 hr 24 min 16 sec) 
Heartbeat CPU 0 instructions: 880000000 cycles: 743126379 heartbeat IPC: 1.03712 cumulative IPC: 1.09912 (Simulation time: 0 hr 24 min 31 sec) 
Heartbeat CPU 0 instructions: 890000000 cycles: 764024869 heartbeat IPC: 0.478503 cumulative IPC: 1.08137 (Simulation time: 0 hr 24 min 59 sec) 
Heartbeat CPU 0 instructions: 900000002 cycles: 771217885 heartbeat IPC: 1.39024 cumulative IPC: 1.08438 (Simulation time: 0 hr 25 min 15 sec) 
Heartbeat CPU 0 instructions: 910000000 cycles: 777054477 heartbeat IPC: 1.71333 cumulative IPC: 1.08932 (Simulation time: 0 hr 25 min 31 sec) 
Heartbeat CPU 0 instructions: 920000001 cycles: 782866294 heartbeat IPC: 1.72063 cumulative IPC: 1.09422 (Simulation time: 0 hr 25 min 47 sec) 
Heartbeat CPU 0 instructions: 930000001 cycles: 790872318 heartbeat IPC: 1.24906 cumulative IPC: 1.09585 (Simulation time: 0 hr 26 min 2 sec) 
Heartbeat CPU 0 instructions: 940000000 cycles: 799704079 heartbeat IPC: 1.13228 cumulative IPC: 1.09627 (Simulation time: 0 hr 26 min 16 sec) 
Heartbeat CPU 0 instructions: 950000003 cycles: 808076906 heartbeat IPC: 1.19434 cumulative IPC: 1.09733 (Simulation time: 0 hr 26 min 31 sec) 
Heartbeat CPU 0 instructions: 960000001 cycles: 816446214 heartbeat IPC: 1.19484 cumulative IPC: 1.09837 (Simulation time: 0 hr 26 min 45 sec) 
Heartbeat CPU 0 instructions: 970000000 cycles: 824795012 heartbeat IPC: 1.19778 cumulative IPC: 1.09942 (Simulation time: 0 hr 27 min 1 sec) 
Heartbeat CPU 0 instructions: 980000002 cycles: 834490806 heartbeat IPC: 1.03138 cumulative IPC: 1.0986 (Simulation time: 0 hr 27 min 16 sec) 
Heartbeat CPU 0 instructions: 990000000 cycles: 855569905 heartbeat IPC: 0.474403 cumulative IPC: 1.08259 (Simulation time: 0 hr 27 min 43 sec) 
Heartbeat CPU 0 instructions: 1000000000 cycles: 862039570 heartbeat IPC: 1.54568 cumulative IPC: 1.08621 (Simulation time: 0 hr 28 min 0 sec) 
Heartbeat CPU 0 instructions: 1010000000 cycles: 867866195 heartbeat IPC: 1.71626 cumulative IPC: 1.09061 (Simulation time: 0 hr 28 min 16 sec) 
Heartbeat CPU 0 instructions: 1020000000 cycles: 873945045 heartbeat IPC: 1.64505 cumulative IPC: 1.09462 (Simulation time: 0 hr 28 min 31 sec) 
Heartbeat CPU 0 instructions: 1030000002 cycles: 882644275 heartbeat IPC: 1.14953 cumulative IPC: 1.09518 (Simulation time: 0 hr 28 min 46 sec) 
Heartbeat CPU 0 instructions: 1040000000 cycles: 890420360 heartbeat IPC: 1.28599 cumulative IPC: 1.09691 (Simulation time: 0 hr 29 min 1 sec) 
Heartbeat CPU 0 instructions: 1050000001 cycles: 898254700 heartbeat IPC: 1.27643 cumulative IPC: 1.09854 (Simulation time: 0 hr 29 min 15 sec) 
Heartbeat CPU 0 instructions: 1060000003 cycles: 907231776 heartbeat IPC: 1.11395 cumulative IPC: 1.0987 (Simulation time: 0 hr 29 min 30 sec) 
Heartbeat CPU 0 instructions: 1070000002 cycles: 915732700 heartbeat IPC: 1.17634 cumulative IPC: 1.09945 (Simulation time: 0 hr 29 min 44 sec) 
Heartbeat CPU 0 instructions: 1080000003 cycles: 934363645 heartbeat IPC: 0.536741 cumulative IPC: 1.08781 (Simulation time: 0 hr 30 min 11 sec) 
Heartbeat CPU 0 instructions: 1090000003 cycles: 945929403 heartbeat IPC: 0.864621 cumulative IPC: 1.08498 (Simulation time: 0 hr 30 min 28 sec) 
Heartbeat CPU 0 instructions: 1100000000 cycles: 951889568 heartbeat IPC: 1.67781 cumulative IPC: 1.08883 (Simulation time: 0 hr 30 min 44 sec) 
Finished CPU 0 instructions: 1000000003 cycles: 918418826 cumulative IPC: 1.08883 (Simulation time: 0 hr 30 min 44 sec) 

ChampSim completed all CPUs

Region of Interest Statistics

CPU 0 cumulative IPC: 1.08883 instructions: 1000000003 cycles: 918418826
L1D TOTAL     ACCESS:  210117745  HIT:  199903918  MISS:   10213827
L1D LOAD      ACCESS:  126611397  HIT:  123143872  MISS:    3467525
L1D RFO       ACCESS:   83506348  HIT:   76760046  MISS:    6746302
L1D PREFETCH  ACCESS:          0  HIT:          0  MISS:          0
L1D WRITEBACK ACCESS:          0  HIT:          0  MISS:          0
L1D PREFETCH  REQUESTED:          0  ISSUED:          0  USEFUL:          0  USELESS:          0
L1D AVERAGE MISS LATENCY: 288.359 cycles
L1I TOTAL     ACCESS:  166888185  HIT:  166479978  MISS:     408207
L1I LOAD      ACCESS:  166888185  HIT:  166479978  MISS:     408207
L1I RFO       ACCESS:          0  HIT:          0  MISS:          0
L1I PREFETCH  ACCESS:          0  HIT:          0  MISS:          0
L1I WRITEBACK ACCESS:          0  HIT:          0  MISS:          0
L1I PREFETCH  REQUESTED:          0  ISSUED:          0  USEFUL:          0  USELESS:          0
L1I AVERAGE MISS LATENCY: 71.1524 cycles
L2C TOTAL     ACCESS:   17800698  HIT:   11256353  MISS:    6544345
L2C LOAD      ACCESS:    3875535  HIT:    2843745  MISS:    1031790
L2C RFO       ACCESS:    6746241  HIT:    1235870  MISS:    5510371
L2C PREFETCH  ACCESS:          0  HIT:          0  MISS:          0
L2C WRITEBACK ACCESS:    7178922  HIT:    7176738  MISS:       2184
L2C PREFETCH  REQUESTED:          0  ISSUED:          0  USEFUL:          0  USELESS:          0
L2C AVERAGE MISS LATENCY: 433.778 cycles
LLC TOTAL     ACCESS:   12220072  HIT:    1767306  MISS:   10452766
LLC LOAD      ACCESS:    1031789  HIT:     494545  MISS:     537244
LLC RFO       ACCESS:    5510360  HIT:     431570  MISS:    5078790
LLC PREFETCH  ACCESS:          0  HIT:          0  MISS:          0
LLC WRITEBACK ACCESS:    5677923  HIT:     841191  MISS:    4836732
LLC PREFETCH  REQUESTED:          0  ISSUED:          0  USEFUL:          0  USELESS:          0
LLC AVERAGE MISS LATENCY: 244.199 cycles
Major fault: 0 Minor fault: 7146
==============================
Perceptron RRIP Stats:
   Num Updates:          735554
   Num Primary Trains:   8181
   Num Secondary Trains: 8633
==============================
primary_perceptron #0: -1 -1 3 3 -1 -3 1 1 1 5 -3 1 -7 3 1 -19 
secondary_perceptron #0: -3 -1 1 3 -3 -5 3 -3 1 9 -5 1 -7 -1 -3 5 -1 3 1 1 -23 


DRAM Statistics
 CHANNEL 0
 RQ ROW_BUFFER_HIT:    2377673  ROW_BUFFER_MISS:    3238278
 DBUS_CONGESTED:    8431431
 WQ ROW_BUFFER_HIT:    2216996  ROW_BUFFER_MISS:    2924846  FULL:    6708554

 AVG_CONGESTED_CYCLE: 6

CPU 0 Branch Prediction Accuracy: 93.7395% MPKI: 8.37522 Average ROB Occupancy at Mispredict: 32.0071

Branch types
NOT_BRANCH: 866220376 86.622%
BRANCH_DIRECT_JUMP: 7799639 0.779964%
BRANCH_INDIRECT: 50546 0.0050546%
BRANCH_CONDITIONAL: 115170924 11.5171%
BRANCH_DIRECT_CALL: 5379115 0.537911%
BRANCH_INDIRECT_CALL: 0 0%
BRANCH_RETURN: 5379110 0.537911%
BRANCH_OTHER: 0 0%

