
*** ChampSim Multicore Out-of-Order Simulator ***

Warmup Instructions: 100000000
Simulation Instructions: 1000000000
Number of CPUs: 1
LLC sets: 2048
LLC ways: 16
Off-chip DRAM Size: 4096 MB Channels: 1 Width: 64-bit Data Rate: 3200 MT/s

CPU 0 runs /scratch/user/kevin.weston/dpc3-traces/627.champsimtrace.xz
CPU 0 Bimodal branch predictor
Heartbeat CPU 0 instructions: 10000003 cycles: 3428489 heartbeat IPC: 2.91674 cumulative IPC: 2.91674 (Simulation time: 0 hr 0 min 17 sec) 
Heartbeat CPU 0 instructions: 20000001 cycles: 6666098 heartbeat IPC: 3.0887 cumulative IPC: 3.00026 (Simulation time: 0 hr 0 min 37 sec) 
Heartbeat CPU 0 instructions: 30000003 cycles: 9897185 heartbeat IPC: 3.09493 cumulative IPC: 3.03117 (Simulation time: 0 hr 0 min 56 sec) 
Heartbeat CPU 0 instructions: 40000003 cycles: 13067208 heartbeat IPC: 3.15455 cumulative IPC: 3.0611 (Simulation time: 0 hr 1 min 16 sec) 
Heartbeat CPU 0 instructions: 50000002 cycles: 16395584 heartbeat IPC: 3.00447 cumulative IPC: 3.0496 (Simulation time: 0 hr 1 min 36 sec) 
Heartbeat CPU 0 instructions: 60000003 cycles: 19756903 heartbeat IPC: 2.97502 cumulative IPC: 3.03691 (Simulation time: 0 hr 1 min 56 sec) 
Heartbeat CPU 0 instructions: 70000002 cycles: 23051625 heartbeat IPC: 3.03516 cumulative IPC: 3.03666 (Simulation time: 0 hr 2 min 15 sec) 
Heartbeat CPU 0 instructions: 80000002 cycles: 26415159 heartbeat IPC: 2.97306 cumulative IPC: 3.02856 (Simulation time: 0 hr 2 min 34 sec) 
Heartbeat CPU 0 instructions: 90000001 cycles: 29972604 heartbeat IPC: 2.81101 cumulative IPC: 3.00274 (Simulation time: 0 hr 2 min 53 sec) 
Heartbeat CPU 0 instructions: 100000001 cycles: 33470036 heartbeat IPC: 2.85924 cumulative IPC: 2.98775 (Simulation time: 0 hr 3 min 13 sec) 

Warmup complete CPU 0 instructions: 100000001 cycles: 33470036 (Simulation time: 0 hr 3 min 13 sec) 

Heartbeat CPU 0 instructions: 110000000 cycles: 54509072 heartbeat IPC: 0.475307 cumulative IPC: 0.475307 (Simulation time: 0 hr 3 min 40 sec) 
Heartbeat CPU 0 instructions: 120000002 cycles: 60935550 heartbeat IPC: 1.55606 cumulative IPC: 0.728186 (Simulation time: 0 hr 3 min 56 sec) 
Heartbeat CPU 0 instructions: 130000000 cycles: 66789507 heartbeat IPC: 1.70825 cumulative IPC: 0.900374 (Simulation time: 0 hr 4 min 12 sec) 
Heartbeat CPU 0 instructions: 140000001 cycles: 72624596 heartbeat IPC: 1.71377 cumulative IPC: 1.02159 (Simulation time: 0 hr 4 min 28 sec) 
Heartbeat CPU 0 instructions: 150000001 cycles: 80419953 heartbeat IPC: 1.28281 cumulative IPC: 1.06496 (Simulation time: 0 hr 4 min 42 sec) 
Heartbeat CPU 0 instructions: 160000001 cycles: 88988086 heartbeat IPC: 1.16712 cumulative IPC: 1.08073 (Simulation time: 0 hr 4 min 57 sec) 
Heartbeat CPU 0 instructions: 170000001 cycles: 97340232 heartbeat IPC: 1.1973 cumulative IPC: 1.09597 (Simulation time: 0 hr 5 min 11 sec) 
Heartbeat CPU 0 instructions: 180000001 cycles: 105472827 heartbeat IPC: 1.22962 cumulative IPC: 1.11107 (Simulation time: 0 hr 5 min 25 sec) 
Heartbeat CPU 0 instructions: 190000000 cycles: 113857327 heartbeat IPC: 1.19268 cumulative IPC: 1.11958 (Simulation time: 0 hr 5 min 41 sec) 
Heartbeat CPU 0 instructions: 200000003 cycles: 123834867 heartbeat IPC: 1.00225 cumulative IPC: 1.10663 (Simulation time: 0 hr 5 min 56 sec) 
Heartbeat CPU 0 instructions: 210000000 cycles: 145496183 heartbeat IPC: 0.461652 cumulative IPC: 0.981914 (Simulation time: 0 hr 6 min 24 sec) 
Heartbeat CPU 0 instructions: 220000000 cycles: 152330838 heartbeat IPC: 1.46313 cumulative IPC: 1.00958 (Simulation time: 0 hr 6 min 40 sec) 
Heartbeat CPU 0 instructions: 230000003 cycles: 158159082 heartbeat IPC: 1.71578 cumulative IPC: 1.04259 (Simulation time: 0 hr 6 min 57 sec) 
Heartbeat CPU 0 instructions: 240000001 cycles: 163961783 heartbeat IPC: 1.72334 cumulative IPC: 1.07286 (Simulation time: 0 hr 7 min 12 sec) 
Heartbeat CPU 0 instructions: 250000000 cycles: 171016553 heartbeat IPC: 1.41748 cumulative IPC: 1.09054 (Simulation time: 0 hr 7 min 27 sec) 
Heartbeat CPU 0 instructions: 260000002 cycles: 179456258 heartbeat IPC: 1.18488 cumulative IPC: 1.09599 (Simulation time: 0 hr 7 min 41 sec) 
Heartbeat CPU 0 instructions: 270000000 cycles: 187813354 heartbeat IPC: 1.19659 cumulative IPC: 1.10144 (Simulation time: 0 hr 7 min 56 sec) 
Heartbeat CPU 0 instructions: 280000002 cycles: 195145482 heartbeat IPC: 1.36386 cumulative IPC: 1.11334 (Simulation time: 0 hr 8 min 10 sec) 
Heartbeat CPU 0 instructions: 290000003 cycles: 204114851 heartbeat IPC: 1.11491 cumulative IPC: 1.11342 (Simulation time: 0 hr 8 min 25 sec) 
Heartbeat CPU 0 instructions: 300000003 cycles: 213517914 heartbeat IPC: 1.06348 cumulative IPC: 1.11082 (Simulation time: 0 hr 8 min 40 sec) 
Heartbeat CPU 0 instructions: 310000000 cycles: 235400805 heartbeat IPC: 0.456978 cumulative IPC: 1.03996 (Simulation time: 0 hr 9 min 9 sec) 
Heartbeat CPU 0 instructions: 320000000 cycles: 243339498 heartbeat IPC: 1.25965 cumulative IPC: 1.04827 (Simulation time: 0 hr 9 min 24 sec) 
Heartbeat CPU 0 instructions: 330000000 cycles: 249194470 heartbeat IPC: 1.70795 cumulative IPC: 1.06617 (Simulation time: 0 hr 9 min 41 sec) 
Heartbeat CPU 0 instructions: 340000000 cycles: 254976654 heartbeat IPC: 1.72945 cumulative IPC: 1.08349 (Simulation time: 0 hr 9 min 56 sec) 
Heartbeat CPU 0 instructions: 350000000 cycles: 261215024 heartbeat IPC: 1.60298 cumulative IPC: 1.09772 (Simulation time: 0 hr 10 min 11 sec) 
Heartbeat CPU 0 instructions: 360000000 cycles: 268826297 heartbeat IPC: 1.31384 cumulative IPC: 1.10471 (Simulation time: 0 hr 10 min 26 sec) 
Heartbeat CPU 0 instructions: 370000000 cycles: 277381309 heartbeat IPC: 1.16891 cumulative IPC: 1.10696 (Simulation time: 0 hr 10 min 40 sec) 
Heartbeat CPU 0 instructions: 380000000 cycles: 285308359 heartbeat IPC: 1.2615 cumulative IPC: 1.11182 (Simulation time: 0 hr 10 min 54 sec) 
Heartbeat CPU 0 instructions: 390000000 cycles: 293742720 heartbeat IPC: 1.18563 cumulative IPC: 1.11422 (Simulation time: 0 hr 11 min 9 sec) 
Heartbeat CPU 0 instructions: 400000000 cycles: 301953454 heartbeat IPC: 1.21792 cumulative IPC: 1.11739 (Simulation time: 0 hr 11 min 24 sec) 
Heartbeat CPU 0 instructions: 410000001 cycles: 314126967 heartbeat IPC: 0.821456 cumulative IPC: 1.10455 (Simulation time: 0 hr 11 min 42 sec) 
Heartbeat CPU 0 instructions: 420000001 cycles: 333627736 heartbeat IPC: 0.5128 cumulative IPC: 1.06611 (Simulation time: 0 hr 12 min 7 sec) 
Heartbeat CPU 0 instructions: 430000003 cycles: 339871314 heartbeat IPC: 1.60165 cumulative IPC: 1.07702 (Simulation time: 0 hr 12 min 24 sec) 
Heartbeat CPU 0 instructions: 440000000 cycles: 345703946 heartbeat IPC: 1.71449 cumulative IPC: 1.08893 (Simulation time: 0 hr 12 min 40 sec) 
Heartbeat CPU 0 instructions: 450000000 cycles: 351601252 heartbeat IPC: 1.69569 cumulative IPC: 1.10018 (Simulation time: 0 hr 12 min 56 sec) 
Heartbeat CPU 0 instructions: 460000000 cycles: 359123806 heartbeat IPC: 1.32934 cumulative IPC: 1.10547 (Simulation time: 0 hr 13 min 10 sec) 
Heartbeat CPU 0 instructions: 470000001 cycles: 367587174 heartbeat IPC: 1.18156 cumulative IPC: 1.1074 (Simulation time: 0 hr 13 min 25 sec) 
Heartbeat CPU 0 instructions: 480000001 cycles: 375730254 heartbeat IPC: 1.22804 cumulative IPC: 1.11027 (Simulation time: 0 hr 13 min 39 sec) 
Heartbeat CPU 0 instructions: 490000003 cycles: 383975528 heartbeat IPC: 1.21282 cumulative IPC: 1.11268 (Simulation time: 0 hr 13 min 53 sec) 
Heartbeat CPU 0 instructions: 500000001 cycles: 392233315 heartbeat IPC: 1.21098 cumulative IPC: 1.11494 (Simulation time: 0 hr 14 min 8 sec) 
Heartbeat CPU 0 instructions: 510000001 cycles: 402559256 heartbeat IPC: 0.968435 cumulative IPC: 1.11084 (Simulation time: 0 hr 14 min 24 sec) 
Heartbeat CPU 0 instructions: 520000001 cycles: 423990568 heartbeat IPC: 0.466607 cumulative IPC: 1.07549 (Simulation time: 0 hr 14 min 51 sec) 
Heartbeat CPU 0 instructions: 530000001 cycles: 430247121 heartbeat IPC: 1.59832 cumulative IPC: 1.08373 (Simulation time: 0 hr 15 min 8 sec) 
Heartbeat CPU 0 instructions: 540000000 cycles: 436073024 heartbeat IPC: 1.71647 cumulative IPC: 1.09289 (Simulation time: 0 hr 15 min 24 sec) 
Heartbeat CPU 0 instructions: 550000000 cycles: 441988414 heartbeat IPC: 1.69051 cumulative IPC: 1.10154 (Simulation time: 0 hr 15 min 40 sec) 
Heartbeat CPU 0 instructions: 560000000 cycles: 449215718 heartbeat IPC: 1.38364 cumulative IPC: 1.10645 (Simulation time: 0 hr 15 min 54 sec) 
Heartbeat CPU 0 instructions: 570000000 cycles: 457412454 heartbeat IPC: 1.22 cumulative IPC: 1.10864 (Simulation time: 0 hr 16 min 9 sec) 
Heartbeat CPU 0 instructions: 580000001 cycles: 465650569 heartbeat IPC: 1.21387 cumulative IPC: 1.11065 (Simulation time: 0 hr 16 min 23 sec) 
Heartbeat CPU 0 instructions: 590000000 cycles: 473862668 heartbeat IPC: 1.21772 cumulative IPC: 1.11264 (Simulation time: 0 hr 16 min 37 sec) 
Heartbeat CPU 0 instructions: 600000002 cycles: 482340088 heartbeat IPC: 1.1796 cumulative IPC: 1.11391 (Simulation time: 0 hr 16 min 52 sec) 
Heartbeat CPU 0 instructions: 610000003 cycles: 492391522 heartbeat IPC: 0.994883 cumulative IPC: 1.1113 (Simulation time: 0 hr 17 min 8 sec) 
Heartbeat CPU 0 instructions: 620000002 cycles: 513847653 heartbeat IPC: 0.466067 cumulative IPC: 1.08248 (Simulation time: 0 hr 17 min 35 sec) 
Heartbeat CPU 0 instructions: 630000000 cycles: 520255075 heartbeat IPC: 1.56069 cumulative IPC: 1.08878 (Simulation time: 0 hr 17 min 52 sec) 
Heartbeat CPU 0 instructions: 640000002 cycles: 526109023 heartbeat IPC: 1.70825 cumulative IPC: 1.09614 (Simulation time: 0 hr 18 min 8 sec) 
Heartbeat CPU 0 instructions: 650000000 cycles: 532619411 heartbeat IPC: 1.53601 cumulative IPC: 1.10187 (Simulation time: 0 hr 18 min 23 sec) 
Heartbeat CPU 0 instructions: 660000000 cycles: 541102655 heartbeat IPC: 1.17879 cumulative IPC: 1.10316 (Simulation time: 0 hr 18 min 37 sec) 
Heartbeat CPU 0 instructions: 670000000 cycles: 549702375 heartbeat IPC: 1.16283 cumulative IPC: 1.10415 (Simulation time: 0 hr 18 min 51 sec) 
Heartbeat CPU 0 instructions: 680000000 cycles: 557383144 heartbeat IPC: 1.30195 cumulative IPC: 1.10705 (Simulation time: 0 hr 19 min 6 sec) 
Heartbeat CPU 0 instructions: 690000002 cycles: 565981595 heartbeat IPC: 1.163 cumulative IPC: 1.10796 (Simulation time: 0 hr 19 min 20 sec) 
Heartbeat CPU 0 instructions: 700000001 cycles: 576044715 heartbeat IPC: 0.993728 cumulative IPC: 1.10584 (Simulation time: 0 hr 19 min 36 sec) 
Heartbeat CPU 0 instructions: 710000001 cycles: 597662410 heartbeat IPC: 0.462584 cumulative IPC: 1.08119 (Simulation time: 0 hr 20 min 3 sec) 
Heartbeat CPU 0 instructions: 720000003 cycles: 604437625 heartbeat IPC: 1.47597 cumulative IPC: 1.08588 (Simulation time: 0 hr 20 min 20 sec) 
Heartbeat CPU 0 instructions: 730000000 cycles: 610360144 heartbeat IPC: 1.68847 cumulative IPC: 1.09206 (Simulation time: 0 hr 20 min 37 sec) 
Heartbeat CPU 0 instructions: 740000002 cycles: 617193183 heartbeat IPC: 1.46348 cumulative IPC: 1.09641 (Simulation time: 0 hr 20 min 52 sec) 
Heartbeat CPU 0 instructions: 750000002 cycles: 625260878 heartbeat IPC: 1.23951 cumulative IPC: 1.09836 (Simulation time: 0 hr 21 min 6 sec) 
Heartbeat CPU 0 instructions: 760000000 cycles: 633768510 heartbeat IPC: 1.17541 cumulative IPC: 1.09945 (Simulation time: 0 hr 21 min 20 sec) 
Heartbeat CPU 0 instructions: 770000000 cycles: 641470725 heartbeat IPC: 1.29833 cumulative IPC: 1.10197 (Simulation time: 0 hr 21 min 34 sec) 
Heartbeat CPU 0 instructions: 780000003 cycles: 650154053 heartbeat IPC: 1.15163 cumulative IPC: 1.10267 (Simulation time: 0 hr 21 min 49 sec) 
Heartbeat CPU 0 instructions: 790000000 cycles: 659713681 heartbeat IPC: 1.04607 cumulative IPC: 1.10181 (Simulation time: 0 hr 22 min 3 sec) 
Heartbeat CPU 0 instructions: 800000000 cycles: 681686071 heartbeat IPC: 0.455117 cumulative IPC: 1.07989 (Simulation time: 0 hr 22 min 32 sec) 
Heartbeat CPU 0 instructions: 810000003 cycles: 688669359 heartbeat IPC: 1.43199 cumulative IPC: 1.08364 (Simulation time: 0 hr 22 min 48 sec) 
Heartbeat CPU 0 instructions: 820000002 cycles: 694502132 heartbeat IPC: 1.71445 cumulative IPC: 1.08921 (Simulation time: 0 hr 23 min 5 sec) 
Heartbeat CPU 0 instructions: 830000001 cycles: 701670958 heartbeat IPC: 1.39493 cumulative IPC: 1.09249 (Simulation time: 0 hr 23 min 20 sec) 
Heartbeat CPU 0 instructions: 840000000 cycles: 709224975 heartbeat IPC: 1.3238 cumulative IPC: 1.09507 (Simulation time: 0 hr 23 min 34 sec) 
Heartbeat CPU 0 instructions: 850000001 cycles: 717703436 heartbeat IPC: 1.17946 cumulative IPC: 1.09612 (Simulation time: 0 hr 23 min 48 sec) 
Heartbeat CPU 0 instructions: 860000002 cycles: 725075166 heartbeat IPC: 1.35653 cumulative IPC: 1.09889 (Simulation time: 0 hr 24 min 3 sec) 
Heartbeat CPU 0 instructions: 870000000 cycles: 734044830 heartbeat IPC: 1.11487 cumulative IPC: 1.0991 (Simulation time: 0 hr 24 min 17 sec) 
Heartbeat CPU 0 instructions: 880000000 cycles: 743689145 heartbeat IPC: 1.03688 cumulative IPC: 1.09825 (Simulation time: 0 hr 24 min 32 sec) 
Heartbeat CPU 0 instructions: 890000000 cycles: 765527511 heartbeat IPC: 0.45791 cumulative IPC: 1.07915 (Simulation time: 0 hr 25 min 1 sec) 
Heartbeat CPU 0 instructions: 900000002 cycles: 772729124 heartbeat IPC: 1.38858 cumulative IPC: 1.08216 (Simulation time: 0 hr 25 min 16 sec) 
Heartbeat CPU 0 instructions: 910000000 cycles: 778585563 heartbeat IPC: 1.70752 cumulative IPC: 1.08708 (Simulation time: 0 hr 25 min 32 sec) 
Heartbeat CPU 0 instructions: 920000001 cycles: 784380295 heartbeat IPC: 1.72571 cumulative IPC: 1.09201 (Simulation time: 0 hr 25 min 49 sec) 
Heartbeat CPU 0 instructions: 930000001 cycles: 792133475 heartbeat IPC: 1.28979 cumulative IPC: 1.09403 (Simulation time: 0 hr 26 min 3 sec) 
Heartbeat CPU 0 instructions: 940000000 cycles: 800726060 heartbeat IPC: 1.16379 cumulative IPC: 1.09481 (Simulation time: 0 hr 26 min 17 sec) 
Heartbeat CPU 0 instructions: 950000003 cycles: 808911591 heartbeat IPC: 1.22167 cumulative IPC: 1.09615 (Simulation time: 0 hr 26 min 32 sec) 
Heartbeat CPU 0 instructions: 960000001 cycles: 817011128 heartbeat IPC: 1.23464 cumulative IPC: 1.09758 (Simulation time: 0 hr 26 min 46 sec) 
Heartbeat CPU 0 instructions: 970000000 cycles: 825341421 heartbeat IPC: 1.20044 cumulative IPC: 1.09866 (Simulation time: 0 hr 27 min 1 sec) 
Heartbeat CPU 0 instructions: 980000002 cycles: 835249424 heartbeat IPC: 1.00929 cumulative IPC: 1.09756 (Simulation time: 0 hr 27 min 17 sec) 
Heartbeat CPU 0 instructions: 990000000 cycles: 857002427 heartbeat IPC: 0.459707 cumulative IPC: 1.08071 (Simulation time: 0 hr 27 min 44 sec) 
Heartbeat CPU 0 instructions: 1000000000 cycles: 863525826 heartbeat IPC: 1.53294 cumulative IPC: 1.08426 (Simulation time: 0 hr 28 min 1 sec) 
Heartbeat CPU 0 instructions: 1010000000 cycles: 869344308 heartbeat IPC: 1.71866 cumulative IPC: 1.08868 (Simulation time: 0 hr 28 min 17 sec) 
Heartbeat CPU 0 instructions: 1020000000 cycles: 875360946 heartbeat IPC: 1.66206 cumulative IPC: 1.09278 (Simulation time: 0 hr 28 min 32 sec) 
Heartbeat CPU 0 instructions: 1030000002 cycles: 883741007 heartbeat IPC: 1.19331 cumulative IPC: 1.09377 (Simulation time: 0 hr 28 min 46 sec) 
Heartbeat CPU 0 instructions: 1040000000 cycles: 891304979 heartbeat IPC: 1.32206 cumulative IPC: 1.09578 (Simulation time: 0 hr 29 min 1 sec) 
Heartbeat CPU 0 instructions: 1050000001 cycles: 898975312 heartbeat IPC: 1.30372 cumulative IPC: 1.09762 (Simulation time: 0 hr 29 min 15 sec) 
Heartbeat CPU 0 instructions: 1060000003 cycles: 907761195 heartbeat IPC: 1.13819 cumulative IPC: 1.09803 (Simulation time: 0 hr 29 min 30 sec) 
Heartbeat CPU 0 instructions: 1070000002 cycles: 916252980 heartbeat IPC: 1.17761 cumulative IPC: 1.0988 (Simulation time: 0 hr 29 min 44 sec) 
Heartbeat CPU 0 instructions: 1080000003 cycles: 935560221 heartbeat IPC: 0.51794 cumulative IPC: 1.08637 (Simulation time: 0 hr 30 min 11 sec) 
Heartbeat CPU 0 instructions: 1090000003 cycles: 947435676 heartbeat IPC: 0.842073 cumulative IPC: 1.08319 (Simulation time: 0 hr 30 min 28 sec) 
Heartbeat CPU 0 instructions: 1100000000 cycles: 953390977 heartbeat IPC: 1.67918 cumulative IPC: 1.08705 (Simulation time: 0 hr 30 min 45 sec) 
Finished CPU 0 instructions: 1000000003 cycles: 919920948 cumulative IPC: 1.08705 (Simulation time: 0 hr 30 min 45 sec) 

ChampSim completed all CPUs

Region of Interest Statistics

CPU 0 cumulative IPC: 1.08705 instructions: 1000000003 cycles: 919920948
L1D TOTAL     ACCESS:  210118882  HIT:  199905223  MISS:   10213659
L1D LOAD      ACCESS:  126593064  HIT:  123125627  MISS:    3467437
L1D RFO       ACCESS:   83525818  HIT:   76779596  MISS:    6746222
L1D PREFETCH  ACCESS:          0  HIT:          0  MISS:          0
L1D WRITEBACK ACCESS:          0  HIT:          0  MISS:          0
L1D PREFETCH  REQUESTED:          0  ISSUED:          0  USEFUL:          0  USELESS:          0
L1D AVERAGE MISS LATENCY: 304.916 cycles
L1I TOTAL     ACCESS:  166952855  HIT:  166544648  MISS:     408207
L1I LOAD      ACCESS:  166952855  HIT:  166544648  MISS:     408207
L1I RFO       ACCESS:          0  HIT:          0  MISS:          0
L1I PREFETCH  ACCESS:          0  HIT:          0  MISS:          0
L1I WRITEBACK ACCESS:          0  HIT:          0  MISS:          0
L1I PREFETCH  REQUESTED:          0  ISSUED:          0  USEFUL:          0  USELESS:          0
L1I AVERAGE MISS LATENCY: 73.088 cycles
L2C TOTAL     ACCESS:   17800433  HIT:   11256551  MISS:    6543882
L2C LOAD      ACCESS:    3875440  HIT:    2845947  MISS:    1029493
L2C RFO       ACCESS:    6746138  HIT:    1234049  MISS:    5512089
L2C PREFETCH  ACCESS:          0  HIT:          0  MISS:          0
L2C WRITEBACK ACCESS:    7178855  HIT:    7176555  MISS:       2300
L2C PREFETCH  REQUESTED:          0  ISSUED:          0  USEFUL:          0  USELESS:          0
L2C AVERAGE MISS LATENCY: 459.777 cycles
LLC TOTAL     ACCESS:   12221918  HIT:    6661687  MISS:    5560231
LLC LOAD      ACCESS:    1029467  HIT:     659782  MISS:     369685
LLC RFO       ACCESS:    5512047  HIT:     321707  MISS:    5190340
LLC PREFETCH  ACCESS:          0  HIT:          0  MISS:          0
LLC WRITEBACK ACCESS:    5680404  HIT:    5680198  MISS:        206
LLC PREFETCH  REQUESTED:          0  ISSUED:          0  USEFUL:          0  USELESS:          0
LLC AVERAGE MISS LATENCY: 490.112 cycles
Major fault: 0 Minor fault: 7146

DRAM Statistics
 CHANNEL 0
 RQ ROW_BUFFER_HIT:    2106726  ROW_BUFFER_MISS:    3453213
 DBUS_CONGESTED:    9056787
 WQ ROW_BUFFER_HIT:    1950843  ROW_BUFFER_MISS:    3287662  FULL:          0

 AVG_CONGESTED_CYCLE: 6

CPU 0 Branch Prediction Accuracy: 93.7395% MPKI: 8.37522 Average ROB Occupancy at Mispredict: 31.9044

Branch types
NOT_BRANCH: 866220376 86.622%
BRANCH_DIRECT_JUMP: 7799639 0.779964%
BRANCH_INDIRECT: 50546 0.0050546%
BRANCH_CONDITIONAL: 115170924 11.5171%
BRANCH_DIRECT_CALL: 5379115 0.537911%
BRANCH_INDIRECT_CALL: 0 0%
BRANCH_RETURN: 5379110 0.537911%
BRANCH_OTHER: 0 0%

