
*** ChampSim Multicore Out-of-Order Simulator ***

Warmup Instructions: 100000000
Simulation Instructions: 1000000000
Number of CPUs: 1
LLC sets: 2048
LLC ways: 16
Off-chip DRAM Size: 4096 MB Channels: 1 Width: 64-bit Data Rate: 3200 MT/s

CPU 0 runs /scratch/user/kevin.weston/dpc3-traces/627.champsimtrace.xz
CPU 0 Bimodal branch predictor
Per-line RRPV Initialized
PRRIP State Initialized
Assign SAMPLER_SET[0]: 454  LLC: 2048
SAMPLER_SET[0]: 454
Assign SAMPLER_SET[1]: 1662  LLC: 2048
SAMPLER_SET[1]: 1662
Assign SAMPLER_SET[2]: 1921  LLC: 2048
SAMPLER_SET[2]: 1921
Assign SAMPLER_SET[3]: 1131  LLC: 2048
SAMPLER_SET[3]: 1131
Assign SAMPLER_SET[4]: 331  LLC: 2048
SAMPLER_SET[4]: 331
Assign SAMPLER_SET[5]: 1531  LLC: 2048
SAMPLER_SET[5]: 1531
Assign SAMPLER_SET[6]: 482  LLC: 2048
SAMPLER_SET[6]: 482
Assign SAMPLER_SET[7]: 1275  LLC: 2048
SAMPLER_SET[7]: 1275
Assign SAMPLER_SET[8]: 1876  LLC: 2048
SAMPLER_SET[8]: 1876
Assign SAMPLER_SET[9]: 2038  LLC: 2048
SAMPLER_SET[9]: 2038
Assign SAMPLER_SET[10]: 701  LLC: 2048
SAMPLER_SET[10]: 701
Assign SAMPLER_SET[11]: 479  LLC: 2048
SAMPLER_SET[11]: 479
Assign SAMPLER_SET[12]: 892  LLC: 2048
SAMPLER_SET[12]: 892
Assign SAMPLER_SET[13]: 1820  LLC: 2048
SAMPLER_SET[13]: 1820
Assign SAMPLER_SET[14]: 1505  LLC: 2048
SAMPLER_SET[14]: 1505
Assign SAMPLER_SET[15]: 1159  LLC: 2048
SAMPLER_SET[15]: 1159
Assign SAMPLER_SET[16]: 513  LLC: 2048
SAMPLER_SET[16]: 513
Assign SAMPLER_SET[17]: 703  LLC: 2048
SAMPLER_SET[17]: 703
Assign SAMPLER_SET[18]: 561  LLC: 2048
SAMPLER_SET[18]: 561
Assign SAMPLER_SET[19]: 990  LLC: 2048
SAMPLER_SET[19]: 990
Assign SAMPLER_SET[20]: 342  LLC: 2048
SAMPLER_SET[20]: 342
Assign SAMPLER_SET[21]: 882  LLC: 2048
SAMPLER_SET[21]: 882
Assign SAMPLER_SET[22]: 15  LLC: 2048
SAMPLER_SET[22]: 15
Assign SAMPLER_SET[23]: 71  LLC: 2048
SAMPLER_SET[23]: 71
Assign SAMPLER_SET[24]: 1127  LLC: 2048
SAMPLER_SET[24]: 1127
Assign SAMPLER_SET[25]: 1382  LLC: 2048
SAMPLER_SET[25]: 1382
Assign SAMPLER_SET[26]: 647  LLC: 2048
SAMPLER_SET[26]: 647
Assign SAMPLER_SET[27]: 857  LLC: 2048
SAMPLER_SET[27]: 857
Assign SAMPLER_SET[28]: 1450  LLC: 2048
SAMPLER_SET[28]: 1450
Assign SAMPLER_SET[29]: 1160  LLC: 2048
SAMPLER_SET[29]: 1160
Assign SAMPLER_SET[30]: 1852  LLC: 2048
SAMPLER_SET[30]: 1852
Assign SAMPLER_SET[31]: 1881  LLC: 2048
SAMPLER_SET[31]: 1881
Assign SAMPLER_SET[32]: 1770  LLC: 2048
SAMPLER_SET[32]: 1770
Assign SAMPLER_SET[33]: 1622  LLC: 2048
SAMPLER_SET[33]: 1622
Assign SAMPLER_SET[34]: 275  LLC: 2048
SAMPLER_SET[34]: 275
Assign SAMPLER_SET[35]: 635  LLC: 2048
SAMPLER_SET[35]: 635
Assign SAMPLER_SET[36]: 466  LLC: 2048
SAMPLER_SET[36]: 466
Assign SAMPLER_SET[37]: 1413  LLC: 2048
SAMPLER_SET[37]: 1413
Assign SAMPLER_SET[38]: 417  LLC: 2048
SAMPLER_SET[38]: 417
Assign SAMPLER_SET[39]: 472  LLC: 2048
SAMPLER_SET[39]: 472
Assign SAMPLER_SET[40]: 1340  LLC: 2048
SAMPLER_SET[40]: 1340
Assign SAMPLER_SET[41]: 852  LLC: 2048
SAMPLER_SET[41]: 852
Assign SAMPLER_SET[42]: 1365  LLC: 2048
SAMPLER_SET[42]: 1365
Assign SAMPLER_SET[43]: 47  LLC: 2048
SAMPLER_SET[43]: 47
Assign SAMPLER_SET[44]: 823  LLC: 2048
SAMPLER_SET[44]: 823
Assign SAMPLER_SET[45]: 686  LLC: 2048
SAMPLER_SET[45]: 686
Assign SAMPLER_SET[46]: 1637  LLC: 2048
SAMPLER_SET[46]: 1637
Assign SAMPLER_SET[47]: 1115  LLC: 2048
SAMPLER_SET[47]: 1115
Assign SAMPLER_SET[48]: 986  LLC: 2048
SAMPLER_SET[48]: 986
Assign SAMPLER_SET[49]: 258  LLC: 2048
SAMPLER_SET[49]: 258
Assign SAMPLER_SET[50]: 633  LLC: 2048
SAMPLER_SET[50]: 633
Assign SAMPLER_SET[51]: 920  LLC: 2048
SAMPLER_SET[51]: 920
Assign SAMPLER_SET[52]: 204  LLC: 2048
SAMPLER_SET[52]: 204
Assign SAMPLER_SET[53]: 227  LLC: 2048
SAMPLER_SET[53]: 227
Assign SAMPLER_SET[54]: 1818  LLC: 2048
SAMPLER_SET[54]: 1818
Assign SAMPLER_SET[55]: 886  LLC: 2048
SAMPLER_SET[55]: 886
Assign SAMPLER_SET[56]: 1422  LLC: 2048
SAMPLER_SET[56]: 1422
Assign SAMPLER_SET[57]: 607  LLC: 2048
SAMPLER_SET[57]: 607
Assign SAMPLER_SET[58]: 217  LLC: 2048
SAMPLER_SET[58]: 217
Assign SAMPLER_SET[59]: 1945  LLC: 2048
SAMPLER_SET[59]: 1945
Assign SAMPLER_SET[60]: 143  LLC: 2048
SAMPLER_SET[60]: 143
Assign SAMPLER_SET[61]: 1311  LLC: 2048
SAMPLER_SET[61]: 1311
Assign SAMPLER_SET[62]: 319  LLC: 2048
SAMPLER_SET[62]: 319
Assign SAMPLER_SET[63]: 1846  LLC: 2048
SAMPLER_SET[63]: 1846
Heartbeat CPU 0 instructions: 10000003 cycles: 3428564 heartbeat IPC: 2.91667 cumulative IPC: 2.91667 (Simulation time: 0 hr 0 min 20 sec) 
Heartbeat CPU 0 instructions: 20000001 cycles: 6666210 heartbeat IPC: 3.08866 cumulative IPC: 3.00021 (Simulation time: 0 hr 0 min 42 sec) 
Heartbeat CPU 0 instructions: 30000003 cycles: 9897311 heartbeat IPC: 3.09492 cumulative IPC: 3.03113 (Simulation time: 0 hr 1 min 4 sec) 
Heartbeat CPU 0 instructions: 40000003 cycles: 13067356 heartbeat IPC: 3.15453 cumulative IPC: 3.06106 (Simulation time: 0 hr 1 min 25 sec) 
Heartbeat CPU 0 instructions: 50000002 cycles: 16395810 heartbeat IPC: 3.0044 cumulative IPC: 3.04956 (Simulation time: 0 hr 1 min 48 sec) 
Heartbeat CPU 0 instructions: 60000003 cycles: 19757241 heartbeat IPC: 2.97492 cumulative IPC: 3.03686 (Simulation time: 0 hr 2 min 10 sec) 
Heartbeat CPU 0 instructions: 70000002 cycles: 23052006 heartbeat IPC: 3.03512 cumulative IPC: 3.03661 (Simulation time: 0 hr 2 min 32 sec) 
Heartbeat CPU 0 instructions: 80000002 cycles: 26415789 heartbeat IPC: 2.97284 cumulative IPC: 3.02849 (Simulation time: 0 hr 2 min 53 sec) 
Heartbeat CPU 0 instructions: 90000001 cycles: 29973230 heartbeat IPC: 2.81101 cumulative IPC: 3.00268 (Simulation time: 0 hr 3 min 15 sec) 
Heartbeat CPU 0 instructions: 100000001 cycles: 33470697 heartbeat IPC: 2.85921 cumulative IPC: 2.98769 (Simulation time: 0 hr 3 min 37 sec) 

Warmup complete CPU 0 instructions: 100000001 cycles: 33470697 (Simulation time: 0 hr 3 min 37 sec) 

Heartbeat CPU 0 instructions: 110000000 cycles: 53347559 heartbeat IPC: 0.503097 cumulative IPC: 0.503097 (Simulation time: 0 hr 4 min 6 sec) 
Heartbeat CPU 0 instructions: 120000002 cycles: 59828448 heartbeat IPC: 1.543 cumulative IPC: 0.75879 (Simulation time: 0 hr 4 min 25 sec) 
Heartbeat CPU 0 instructions: 130000000 cycles: 65722746 heartbeat IPC: 1.69655 cumulative IPC: 0.930173 (Simulation time: 0 hr 4 min 44 sec) 
Heartbeat CPU 0 instructions: 140000001 cycles: 71623711 heartbeat IPC: 1.69464 cumulative IPC: 1.04841 (Simulation time: 0 hr 5 min 2 sec) 
Heartbeat CPU 0 instructions: 150000001 cycles: 79754095 heartbeat IPC: 1.22995 cumulative IPC: 1.0803 (Simulation time: 0 hr 5 min 19 sec) 
Heartbeat CPU 0 instructions: 160000001 cycles: 88571933 heartbeat IPC: 1.13406 cumulative IPC: 1.0889 (Simulation time: 0 hr 5 min 36 sec) 
Heartbeat CPU 0 instructions: 170000001 cycles: 97155442 heartbeat IPC: 1.16502 cumulative IPC: 1.09916 (Simulation time: 0 hr 5 min 53 sec) 
Heartbeat CPU 0 instructions: 180000001 cycles: 105464641 heartbeat IPC: 1.20349 cumulative IPC: 1.1112 (Simulation time: 0 hr 6 min 10 sec) 
Heartbeat CPU 0 instructions: 190000000 cycles: 113921907 heartbeat IPC: 1.18242 cumulative IPC: 1.11869 (Simulation time: 0 hr 6 min 28 sec) 
Heartbeat CPU 0 instructions: 200000003 cycles: 123821951 heartbeat IPC: 1.0101 cumulative IPC: 1.10679 (Simulation time: 0 hr 6 min 45 sec) 
Heartbeat CPU 0 instructions: 210000003 cycles: 144753610 heartbeat IPC: 0.477745 cumulative IPC: 0.988472 (Simulation time: 0 hr 7 min 15 sec) 
Heartbeat CPU 0 instructions: 220000000 cycles: 151583750 heartbeat IPC: 1.4641 cumulative IPC: 1.01598 (Simulation time: 0 hr 7 min 34 sec) 
Heartbeat CPU 0 instructions: 230000003 cycles: 157447870 heartbeat IPC: 1.70529 cumulative IPC: 1.04858 (Simulation time: 0 hr 7 min 53 sec) 
Heartbeat CPU 0 instructions: 240000001 cycles: 163288942 heartbeat IPC: 1.71201 cumulative IPC: 1.07843 (Simulation time: 0 hr 8 min 12 sec) 
Heartbeat CPU 0 instructions: 250000000 cycles: 170591582 heartbeat IPC: 1.36937 cumulative IPC: 1.09393 (Simulation time: 0 hr 8 min 29 sec) 
Heartbeat CPU 0 instructions: 260000000 cycles: 179258431 heartbeat IPC: 1.15382 cumulative IPC: 1.09749 (Simulation time: 0 hr 8 min 46 sec) 
Heartbeat CPU 0 instructions: 270000000 cycles: 187818285 heartbeat IPC: 1.16824 cumulative IPC: 1.10141 (Simulation time: 0 hr 9 min 3 sec) 
Heartbeat CPU 0 instructions: 280000002 cycles: 195209044 heartbeat IPC: 1.35304 cumulative IPC: 1.11291 (Simulation time: 0 hr 9 min 20 sec) 
Heartbeat CPU 0 instructions: 290000003 cycles: 204265459 heartbeat IPC: 1.10419 cumulative IPC: 1.11245 (Simulation time: 0 hr 9 min 38 sec) 
Heartbeat CPU 0 instructions: 300000003 cycles: 213687708 heartbeat IPC: 1.06132 cumulative IPC: 1.10977 (Simulation time: 0 hr 9 min 55 sec) 
Heartbeat CPU 0 instructions: 310000000 cycles: 234697230 heartbeat IPC: 0.475975 cumulative IPC: 1.0436 (Simulation time: 0 hr 10 min 27 sec) 
Heartbeat CPU 0 instructions: 320000000 cycles: 242652685 heartbeat IPC: 1.257 cumulative IPC: 1.05172 (Simulation time: 0 hr 10 min 45 sec) 
Heartbeat CPU 0 instructions: 330000000 cycles: 248526863 heartbeat IPC: 1.70237 cumulative IPC: 1.06949 (Simulation time: 0 hr 11 min 4 sec) 
Heartbeat CPU 0 instructions: 340000000 cycles: 254336454 heartbeat IPC: 1.72129 cumulative IPC: 1.08663 (Simulation time: 0 hr 11 min 22 sec) 
Heartbeat CPU 0 instructions: 350000000 cycles: 260732187 heartbeat IPC: 1.56354 cumulative IPC: 1.10005 (Simulation time: 0 hr 11 min 40 sec) 
Heartbeat CPU 0 instructions: 360000000 cycles: 268539071 heartbeat IPC: 1.28092 cumulative IPC: 1.10606 (Simulation time: 0 hr 11 min 57 sec) 
Heartbeat CPU 0 instructions: 370000000 cycles: 277345288 heartbeat IPC: 1.13556 cumulative IPC: 1.10713 (Simulation time: 0 hr 12 min 14 sec) 
Heartbeat CPU 0 instructions: 380000000 cycles: 285430145 heartbeat IPC: 1.23688 cumulative IPC: 1.11129 (Simulation time: 0 hr 12 min 31 sec) 
Heartbeat CPU 0 instructions: 390000000 cycles: 294062302 heartbeat IPC: 1.15846 cumulative IPC: 1.11285 (Simulation time: 0 hr 12 min 48 sec) 
Heartbeat CPU 0 instructions: 400000000 cycles: 302277855 heartbeat IPC: 1.2172 cumulative IPC: 1.11604 (Simulation time: 0 hr 13 min 6 sec) 
Heartbeat CPU 0 instructions: 410000001 cycles: 314473985 heartbeat IPC: 0.819932 cumulative IPC: 1.10319 (Simulation time: 0 hr 13 min 27 sec) 
Heartbeat CPU 0 instructions: 420000001 cycles: 332974722 heartbeat IPC: 0.540519 cumulative IPC: 1.06843 (Simulation time: 0 hr 13 min 54 sec) 
Heartbeat CPU 0 instructions: 430000003 cycles: 339195632 heartbeat IPC: 1.60748 cumulative IPC: 1.0794 (Simulation time: 0 hr 14 min 14 sec) 
Heartbeat CPU 0 instructions: 440000000 cycles: 345061349 heartbeat IPC: 1.70482 cumulative IPC: 1.09118 (Simulation time: 0 hr 14 min 32 sec) 
Heartbeat CPU 0 instructions: 450000000 cycles: 351054585 heartbeat IPC: 1.66855 cumulative IPC: 1.10207 (Simulation time: 0 hr 14 min 51 sec) 
Heartbeat CPU 0 instructions: 460000000 cycles: 358832057 heartbeat IPC: 1.28576 cumulative IPC: 1.10646 (Simulation time: 0 hr 15 min 8 sec) 
Heartbeat CPU 0 instructions: 470000001 cycles: 367520514 heartbeat IPC: 1.15095 cumulative IPC: 1.10762 (Simulation time: 0 hr 15 min 25 sec) 
Heartbeat CPU 0 instructions: 480000001 cycles: 375839295 heartbeat IPC: 1.2021 cumulative IPC: 1.10991 (Simulation time: 0 hr 15 min 42 sec) 
Heartbeat CPU 0 instructions: 490000003 cycles: 384289263 heartbeat IPC: 1.18344 cumulative IPC: 1.11169 (Simulation time: 0 hr 15 min 59 sec) 
Heartbeat CPU 0 instructions: 500000001 cycles: 392552711 heartbeat IPC: 1.21015 cumulative IPC: 1.11395 (Simulation time: 0 hr 16 min 16 sec) 
Heartbeat CPU 0 instructions: 510000001 cycles: 403024046 heartbeat IPC: 0.954988 cumulative IPC: 1.10945 (Simulation time: 0 hr 16 min 35 sec) 
Heartbeat CPU 0 instructions: 520000001 cycles: 423611568 heartbeat IPC: 0.485731 cumulative IPC: 1.07653 (Simulation time: 0 hr 17 min 5 sec) 
Heartbeat CPU 0 instructions: 530000001 cycles: 429904611 heartbeat IPC: 1.58906 cumulative IPC: 1.08467 (Simulation time: 0 hr 17 min 24 sec) 
Heartbeat CPU 0 instructions: 540000000 cycles: 435783420 heartbeat IPC: 1.70102 cumulative IPC: 1.09368 (Simulation time: 0 hr 17 min 43 sec) 
Heartbeat CPU 0 instructions: 550000000 cycles: 441813380 heartbeat IPC: 1.65839 cumulative IPC: 1.10202 (Simulation time: 0 hr 18 min 1 sec) 
Heartbeat CPU 0 instructions: 560000000 cycles: 449225963 heartbeat IPC: 1.34906 cumulative IPC: 1.10642 (Simulation time: 0 hr 18 min 18 sec) 
Heartbeat CPU 0 instructions: 570000000 cycles: 457722477 heartbeat IPC: 1.17695 cumulative IPC: 1.10783 (Simulation time: 0 hr 18 min 35 sec) 
Heartbeat CPU 0 instructions: 580000001 cycles: 466169143 heartbeat IPC: 1.1839 cumulative IPC: 1.10932 (Simulation time: 0 hr 18 min 51 sec) 
Heartbeat CPU 0 instructions: 590000000 cycles: 474522102 heartbeat IPC: 1.19718 cumulative IPC: 1.11098 (Simulation time: 0 hr 19 min 8 sec) 
Heartbeat CPU 0 instructions: 600000002 cycles: 483011469 heartbeat IPC: 1.17794 cumulative IPC: 1.11225 (Simulation time: 0 hr 19 min 25 sec) 
Heartbeat CPU 0 instructions: 610000003 cycles: 493278660 heartbeat IPC: 0.973976 cumulative IPC: 1.10916 (Simulation time: 0 hr 19 min 44 sec) 
Heartbeat CPU 0 instructions: 620000002 cycles: 513694113 heartbeat IPC: 0.489825 cumulative IPC: 1.08283 (Simulation time: 0 hr 20 min 13 sec) 
Heartbeat CPU 0 instructions: 630000000 cycles: 520108598 heartbeat IPC: 1.55897 cumulative IPC: 1.08911 (Simulation time: 0 hr 20 min 32 sec) 
Heartbeat CPU 0 instructions: 640000002 cycles: 525979861 heartbeat IPC: 1.70321 cumulative IPC: 1.09643 (Simulation time: 0 hr 20 min 51 sec) 
Heartbeat CPU 0 instructions: 650000000 cycles: 532642880 heartbeat IPC: 1.50082 cumulative IPC: 1.10182 (Simulation time: 0 hr 21 min 8 sec) 
Heartbeat CPU 0 instructions: 660000000 cycles: 541376415 heartbeat IPC: 1.14501 cumulative IPC: 1.10257 (Simulation time: 0 hr 21 min 25 sec) 
Heartbeat CPU 0 instructions: 670000000 cycles: 550196816 heartbeat IPC: 1.13374 cumulative IPC: 1.1031 (Simulation time: 0 hr 21 min 42 sec) 
Heartbeat CPU 0 instructions: 680000000 cycles: 557965131 heartbeat IPC: 1.28728 cumulative IPC: 1.10583 (Simulation time: 0 hr 21 min 58 sec) 
Heartbeat CPU 0 instructions: 690000002 cycles: 566748210 heartbeat IPC: 1.13855 cumulative IPC: 1.10637 (Simulation time: 0 hr 22 min 16 sec) 
Heartbeat CPU 0 instructions: 700000001 cycles: 576716691 heartbeat IPC: 1.00316 cumulative IPC: 1.10447 (Simulation time: 0 hr 22 min 33 sec) 
Heartbeat CPU 0 instructions: 710000001 cycles: 597692700 heartbeat IPC: 0.476735 cumulative IPC: 1.08113 (Simulation time: 0 hr 23 min 4 sec) 
Heartbeat CPU 0 instructions: 720000003 cycles: 604443840 heartbeat IPC: 1.48123 cumulative IPC: 1.08587 (Simulation time: 0 hr 23 min 22 sec) 
Heartbeat CPU 0 instructions: 730000000 cycles: 610398918 heartbeat IPC: 1.67924 cumulative IPC: 1.09199 (Simulation time: 0 hr 23 min 42 sec) 
Heartbeat CPU 0 instructions: 740000002 cycles: 617450270 heartbeat IPC: 1.41817 cumulative IPC: 1.09593 (Simulation time: 0 hr 23 min 59 sec) 
Heartbeat CPU 0 instructions: 750000002 cycles: 625789502 heartbeat IPC: 1.19915 cumulative IPC: 1.09738 (Simulation time: 0 hr 24 min 16 sec) 
Heartbeat CPU 0 instructions: 760000000 cycles: 634509871 heartbeat IPC: 1.14674 cumulative IPC: 1.0981 (Simulation time: 0 hr 24 min 32 sec) 
Heartbeat CPU 0 instructions: 770000000 cycles: 642259326 heartbeat IPC: 1.29041 cumulative IPC: 1.10055 (Simulation time: 0 hr 24 min 49 sec) 
Heartbeat CPU 0 instructions: 780000003 cycles: 651073858 heartbeat IPC: 1.13449 cumulative IPC: 1.10103 (Simulation time: 0 hr 25 min 6 sec) 
Heartbeat CPU 0 instructions: 790000000 cycles: 660520780 heartbeat IPC: 1.05855 cumulative IPC: 1.10039 (Simulation time: 0 hr 25 min 23 sec) 
Heartbeat CPU 0 instructions: 800000000 cycles: 681600100 heartbeat IPC: 0.474399 cumulative IPC: 1.08003 (Simulation time: 0 hr 25 min 54 sec) 
Heartbeat CPU 0 instructions: 810000003 cycles: 688594596 heartbeat IPC: 1.4297 cumulative IPC: 1.08376 (Simulation time: 0 hr 26 min 12 sec) 
Heartbeat CPU 0 instructions: 820000002 cycles: 694443485 heartbeat IPC: 1.70973 cumulative IPC: 1.0893 (Simulation time: 0 hr 26 min 32 sec) 
Heartbeat CPU 0 instructions: 830000001 cycles: 701907033 heartbeat IPC: 1.33985 cumulative IPC: 1.0921 (Simulation time: 0 hr 26 min 49 sec) 
Heartbeat CPU 0 instructions: 840000000 cycles: 709696650 heartbeat IPC: 1.28376 cumulative IPC: 1.09431 (Simulation time: 0 hr 27 min 6 sec) 
Heartbeat CPU 0 instructions: 850000001 cycles: 718411402 heartbeat IPC: 1.14748 cumulative IPC: 1.09499 (Simulation time: 0 hr 27 min 23 sec) 
Heartbeat CPU 0 instructions: 860000002 cycles: 725869673 heartbeat IPC: 1.34079 cumulative IPC: 1.09763 (Simulation time: 0 hr 27 min 40 sec) 
Heartbeat CPU 0 instructions: 870000000 cycles: 735041321 heartbeat IPC: 1.09032 cumulative IPC: 1.09754 (Simulation time: 0 hr 27 min 57 sec) 
Heartbeat CPU 0 instructions: 880000000 cycles: 744665660 heartbeat IPC: 1.03903 cumulative IPC: 1.09675 (Simulation time: 0 hr 28 min 14 sec) 
Heartbeat CPU 0 instructions: 890000000 cycles: 765784373 heartbeat IPC: 0.473514 cumulative IPC: 1.07877 (Simulation time: 0 hr 28 min 45 sec) 
Heartbeat CPU 0 instructions: 900000002 cycles: 772994192 heartbeat IPC: 1.387 cumulative IPC: 1.08178 (Simulation time: 0 hr 29 min 3 sec) 
Heartbeat CPU 0 instructions: 910000000 cycles: 778862362 heartbeat IPC: 1.70411 cumulative IPC: 1.08668 (Simulation time: 0 hr 29 min 22 sec) 
Heartbeat CPU 0 instructions: 920000001 cycles: 784708569 heartbeat IPC: 1.71051 cumulative IPC: 1.09153 (Simulation time: 0 hr 29 min 40 sec) 
Heartbeat CPU 0 instructions: 930000001 cycles: 792731065 heartbeat IPC: 1.24649 cumulative IPC: 1.09317 (Simulation time: 0 hr 29 min 57 sec) 
Heartbeat CPU 0 instructions: 940000000 cycles: 801552276 heartbeat IPC: 1.13363 cumulative IPC: 1.09363 (Simulation time: 0 hr 30 min 14 sec) 
Heartbeat CPU 0 instructions: 950000003 cycles: 809888514 heartbeat IPC: 1.19958 cumulative IPC: 1.09477 (Simulation time: 0 hr 30 min 30 sec) 
Heartbeat CPU 0 instructions: 960000001 cycles: 818216348 heartbeat IPC: 1.20079 cumulative IPC: 1.0959 (Simulation time: 0 hr 30 min 47 sec) 
Heartbeat CPU 0 instructions: 970000000 cycles: 826547368 heartbeat IPC: 1.20033 cumulative IPC: 1.09699 (Simulation time: 0 hr 31 min 5 sec) 
Heartbeat CPU 0 instructions: 980000002 cycles: 836334787 heartbeat IPC: 1.02172 cumulative IPC: 1.09608 (Simulation time: 0 hr 31 min 22 sec) 
Heartbeat CPU 0 instructions: 990000000 cycles: 857407053 heartbeat IPC: 0.474557 cumulative IPC: 1.08018 (Simulation time: 0 hr 31 min 52 sec) 
Heartbeat CPU 0 instructions: 1000000000 cycles: 863922107 heartbeat IPC: 1.53491 cumulative IPC: 1.08375 (Simulation time: 0 hr 32 min 11 sec) 
Heartbeat CPU 0 instructions: 1010000000 cycles: 869775072 heartbeat IPC: 1.70854 cumulative IPC: 1.08812 (Simulation time: 0 hr 32 min 30 sec) 
Heartbeat CPU 0 instructions: 1020000000 cycles: 875903938 heartbeat IPC: 1.63162 cumulative IPC: 1.09207 (Simulation time: 0 hr 32 min 48 sec) 
Heartbeat CPU 0 instructions: 1030000002 cycles: 884619307 heartbeat IPC: 1.1474 cumulative IPC: 1.09264 (Simulation time: 0 hr 33 min 5 sec) 
Heartbeat CPU 0 instructions: 1040000000 cycles: 892404240 heartbeat IPC: 1.28453 cumulative IPC: 1.09438 (Simulation time: 0 hr 33 min 22 sec) 
Heartbeat CPU 0 instructions: 1050000001 cycles: 900253883 heartbeat IPC: 1.27394 cumulative IPC: 1.09601 (Simulation time: 0 hr 33 min 39 sec) 
Heartbeat CPU 0 instructions: 1060000003 cycles: 909248744 heartbeat IPC: 1.11175 cumulative IPC: 1.09617 (Simulation time: 0 hr 33 min 56 sec) 
Heartbeat CPU 0 instructions: 1070000002 cycles: 917745737 heartbeat IPC: 1.17689 cumulative IPC: 1.09694 (Simulation time: 0 hr 34 min 12 sec) 
Heartbeat CPU 0 instructions: 1080000003 cycles: 936586845 heartbeat IPC: 0.530754 cumulative IPC: 1.08513 (Simulation time: 0 hr 34 min 42 sec) 
Heartbeat CPU 0 instructions: 1090000003 cycles: 948305749 heartbeat IPC: 0.853322 cumulative IPC: 1.08216 (Simulation time: 0 hr 35 min 2 sec) 
Heartbeat CPU 0 instructions: 1100000000 cycles: 954284205 heartbeat IPC: 1.67267 cumulative IPC: 1.086 (Simulation time: 0 hr 35 min 20 sec) 
Finished CPU 0 instructions: 1000000003 cycles: 920813515 cumulative IPC: 1.086 (Simulation time: 0 hr 35 min 20 sec) 

ChampSim completed all CPUs

Region of Interest Statistics

CPU 0 cumulative IPC: 1.086 instructions: 1000000003 cycles: 920813515
L1D TOTAL     ACCESS:  210087457  HIT:  199873659  MISS:   10213798
L1D LOAD      ACCESS:  126609639  HIT:  123142138  MISS:    3467501
L1D RFO       ACCESS:   83477818  HIT:   76731521  MISS:    6746297
L1D PREFETCH  ACCESS:          0  HIT:          0  MISS:          0
L1D WRITEBACK ACCESS:          0  HIT:          0  MISS:          0
L1D PREFETCH  REQUESTED:          0  ISSUED:          0  USEFUL:          0  USELESS:          0
L1D AVERAGE MISS LATENCY: 289.159 cycles
L1I TOTAL     ACCESS:  166869922  HIT:  166461715  MISS:     408207
L1I LOAD      ACCESS:  166869922  HIT:  166461715  MISS:     408207
L1I RFO       ACCESS:          0  HIT:          0  MISS:          0
L1I PREFETCH  ACCESS:          0  HIT:          0  MISS:          0
L1I WRITEBACK ACCESS:          0  HIT:          0  MISS:          0
L1I PREFETCH  REQUESTED:          0  ISSUED:          0  USEFUL:          0  USELESS:          0
L1I AVERAGE MISS LATENCY: 73.9211 cycles
L2C TOTAL     ACCESS:   17800662  HIT:   11268631  MISS:    6532031
L2C LOAD      ACCESS:    3875511  HIT:    2858171  MISS:    1017340
L2C RFO       ACCESS:    6746235  HIT:    1233714  MISS:    5512521
L2C PREFETCH  ACCESS:          0  HIT:          0  MISS:          0
L2C WRITEBACK ACCESS:    7178916  HIT:    7176746  MISS:       2170
L2C PREFETCH  REQUESTED:          0  ISSUED:          0  USEFUL:          0  USELESS:          0
L2C AVERAGE MISS LATENCY: 436.017 cycles
LLC TOTAL     ACCESS:   12208445  HIT:    1772445  MISS:   10436000
LLC LOAD      ACCESS:    1017336  HIT:     446306  MISS:     571030
LLC RFO       ACCESS:    5512513  HIT:     384178  MISS:    5128335
LLC PREFETCH  ACCESS:          0  HIT:          0  MISS:          0
LLC WRITEBACK ACCESS:    5678596  HIT:     941961  MISS:    4736635
LLC PREFETCH  REQUESTED:          0  ISSUED:          0  USEFUL:          0  USELESS:          0
LLC AVERAGE MISS LATENCY: 245.483 cycles
Major fault: 0 Minor fault: 7146
==============================
Perceptron RRIP Stats:
   Num Updates:          362881
   Num Primary Trains:   4290
   Num Secondary Trains: 4731
==============================
primary_perceptron #0: -2 -2 0 0 -2 0 -2 -4 -4 4 0 6 -2 2 2 -12 
secondary_perceptron #0: -5 -5 -1 3 -1 1 1 -9 -3 5 -1 5 1 1 1 3 3 -3 -3 -1 -21 


DRAM Statistics
 CHANNEL 0
 RQ ROW_BUFFER_HIT:    2406425  ROW_BUFFER_MISS:    3292872
 DBUS_CONGESTED:    8420278
 WQ ROW_BUFFER_HIT:    2228387  ROW_BUFFER_MISS:    2965061  FULL:    7017066

 AVG_CONGESTED_CYCLE: 6

CPU 0 Branch Prediction Accuracy: 93.7395% MPKI: 8.37522 Average ROB Occupancy at Mispredict: 32.2192

Branch types
NOT_BRANCH: 866220376 86.622%
BRANCH_DIRECT_JUMP: 7799639 0.779964%
BRANCH_INDIRECT: 50546 0.0050546%
BRANCH_CONDITIONAL: 115170924 11.5171%
BRANCH_DIRECT_CALL: 5379115 0.537911%
BRANCH_INDIRECT_CALL: 0 0%
BRANCH_RETURN: 5379110 0.537911%
BRANCH_OTHER: 0 0%

