
*** ChampSim Multicore Out-of-Order Simulator ***

Warmup Instructions: 100000000
Simulation Instructions: 1000000000
Number of CPUs: 1
LLC sets: 2048
LLC ways: 16
Off-chip DRAM Size: 4096 MB Channels: 1 Width: 64-bit Data Rate: 3200 MT/s

CPU 0 runs /scratch/user/kevin.weston/dpc3-traces/627.champsimtrace.xz
CPU 0 Bimodal branch predictor
Initialize RRPV
Initialize PRRIP state
Heartbeat CPU 0 instructions: 10000003 cycles: 3428505 heartbeat IPC: 2.91672 cumulative IPC: 2.91672 (Simulation time: 0 hr 0 min 18 sec) 
Heartbeat CPU 0 instructions: 20000001 cycles: 6666126 heartbeat IPC: 3.08869 cumulative IPC: 3.00024 (Simulation time: 0 hr 0 min 39 sec) 
Heartbeat CPU 0 instructions: 30000003 cycles: 9897238 heartbeat IPC: 3.09491 cumulative IPC: 3.03115 (Simulation time: 0 hr 0 min 59 sec) 
Heartbeat CPU 0 instructions: 40000003 cycles: 13067300 heartbeat IPC: 3.15451 cumulative IPC: 3.06108 (Simulation time: 0 hr 1 min 19 sec) 
Heartbeat CPU 0 instructions: 50000002 cycles: 16395731 heartbeat IPC: 3.00442 cumulative IPC: 3.04957 (Simulation time: 0 hr 1 min 40 sec) 
Heartbeat CPU 0 instructions: 60000003 cycles: 19757122 heartbeat IPC: 2.97496 cumulative IPC: 3.03688 (Simulation time: 0 hr 2 min 1 sec) 
Heartbeat CPU 0 instructions: 70000002 cycles: 23051861 heartbeat IPC: 3.03514 cumulative IPC: 3.03663 (Simulation time: 0 hr 2 min 21 sec) 
Heartbeat CPU 0 instructions: 80000002 cycles: 26415433 heartbeat IPC: 2.97303 cumulative IPC: 3.02853 (Simulation time: 0 hr 2 min 40 sec) 
Heartbeat CPU 0 instructions: 90000001 cycles: 29972873 heartbeat IPC: 2.81101 cumulative IPC: 3.00272 (Simulation time: 0 hr 3 min 0 sec) 
Heartbeat CPU 0 instructions: 100000001 cycles: 33470403 heartbeat IPC: 2.85916 cumulative IPC: 2.98771 (Simulation time: 0 hr 3 min 20 sec) 

Warmup complete CPU 0 instructions: 100000001 cycles: 33470403 (Simulation time: 0 hr 3 min 20 sec) 

Heartbeat CPU 0 instructions: 110000000 cycles: 53895924 heartbeat IPC: 0.489584 cumulative IPC: 0.489584 (Simulation time: 0 hr 3 min 48 sec) 
Heartbeat CPU 0 instructions: 120000002 cycles: 60384000 heartbeat IPC: 1.54129 cumulative IPC: 0.743119 (Simulation time: 0 hr 4 min 5 sec) 
Heartbeat CPU 0 instructions: 130000000 cycles: 66256918 heartbeat IPC: 1.70273 cumulative IPC: 0.91501 (Simulation time: 0 hr 4 min 22 sec) 
Heartbeat CPU 0 instructions: 140000001 cycles: 72121161 heartbeat IPC: 1.70525 cumulative IPC: 1.03491 (Simulation time: 0 hr 4 min 39 sec) 
Heartbeat CPU 0 instructions: 150000001 cycles: 80162190 heartbeat IPC: 1.24362 cumulative IPC: 1.07085 (Simulation time: 0 hr 4 min 54 sec) 
Heartbeat CPU 0 instructions: 160000001 cycles: 88949569 heartbeat IPC: 1.138 cumulative IPC: 1.08149 (Simulation time: 0 hr 5 min 9 sec) 
Heartbeat CPU 0 instructions: 170000001 cycles: 97479227 heartbeat IPC: 1.17238 cumulative IPC: 1.0936 (Simulation time: 0 hr 5 min 24 sec) 
Heartbeat CPU 0 instructions: 180000001 cycles: 105671533 heartbeat IPC: 1.22066 cumulative IPC: 1.10802 (Simulation time: 0 hr 5 min 39 sec) 
Heartbeat CPU 0 instructions: 190000000 cycles: 114073163 heartbeat IPC: 1.19025 cumulative IPC: 1.11659 (Simulation time: 0 hr 5 min 55 sec) 
Heartbeat CPU 0 instructions: 200000003 cycles: 123809834 heartbeat IPC: 1.02705 cumulative IPC: 1.10694 (Simulation time: 0 hr 6 min 10 sec) 
Heartbeat CPU 0 instructions: 210000001 cycles: 144676253 heartbeat IPC: 0.479239 cumulative IPC: 0.989157 (Simulation time: 0 hr 6 min 38 sec) 
Heartbeat CPU 0 instructions: 220000000 cycles: 151558269 heartbeat IPC: 1.45306 cumulative IPC: 1.01619 (Simulation time: 0 hr 6 min 55 sec) 
Heartbeat CPU 0 instructions: 230000003 cycles: 157413926 heartbeat IPC: 1.70775 cumulative IPC: 1.04886 (Simulation time: 0 hr 7 min 12 sec) 
Heartbeat CPU 0 instructions: 240000001 cycles: 163246631 heartbeat IPC: 1.71447 cumulative IPC: 1.07878 (Simulation time: 0 hr 7 min 29 sec) 
Heartbeat CPU 0 instructions: 250000000 cycles: 170502753 heartbeat IPC: 1.37815 cumulative IPC: 1.09463 (Simulation time: 0 hr 7 min 44 sec) 
Heartbeat CPU 0 instructions: 260000002 cycles: 179161710 heartbeat IPC: 1.15487 cumulative IPC: 1.09821 (Simulation time: 0 hr 7 min 59 sec) 
Heartbeat CPU 0 instructions: 270000000 cycles: 187717755 heartbeat IPC: 1.16876 cumulative IPC: 1.10213 (Simulation time: 0 hr 8 min 15 sec) 
Heartbeat CPU 0 instructions: 280000002 cycles: 195043400 heartbeat IPC: 1.36507 cumulative IPC: 1.11405 (Simulation time: 0 hr 8 min 30 sec) 
Heartbeat CPU 0 instructions: 290000003 cycles: 204064873 heartbeat IPC: 1.10847 cumulative IPC: 1.11375 (Simulation time: 0 hr 8 min 45 sec) 
Heartbeat CPU 0 instructions: 300000003 cycles: 213462714 heartbeat IPC: 1.06407 cumulative IPC: 1.11116 (Simulation time: 0 hr 9 min 1 sec) 
Heartbeat CPU 0 instructions: 310000000 cycles: 234362328 heartbeat IPC: 0.478478 cumulative IPC: 1.04534 (Simulation time: 0 hr 9 min 30 sec) 
Heartbeat CPU 0 instructions: 320000000 cycles: 242421995 heartbeat IPC: 1.24075 cumulative IPC: 1.05288 (Simulation time: 0 hr 9 min 46 sec) 
Heartbeat CPU 0 instructions: 330000000 cycles: 248302731 heartbeat IPC: 1.70047 cumulative IPC: 1.0706 (Simulation time: 0 hr 10 min 3 sec) 
Heartbeat CPU 0 instructions: 340000000 cycles: 254111630 heartbeat IPC: 1.7215 cumulative IPC: 1.08774 (Simulation time: 0 hr 10 min 20 sec) 
Heartbeat CPU 0 instructions: 350000000 cycles: 260481114 heartbeat IPC: 1.56999 cumulative IPC: 1.10127 (Simulation time: 0 hr 10 min 36 sec) 
Heartbeat CPU 0 instructions: 360000000 cycles: 268263352 heartbeat IPC: 1.28498 cumulative IPC: 1.10736 (Simulation time: 0 hr 10 min 51 sec) 
Heartbeat CPU 0 instructions: 370000000 cycles: 277048921 heartbeat IPC: 1.13823 cumulative IPC: 1.10847 (Simulation time: 0 hr 11 min 6 sec) 
Heartbeat CPU 0 instructions: 380000000 cycles: 285107229 heartbeat IPC: 1.24096 cumulative IPC: 1.11271 (Simulation time: 0 hr 11 min 21 sec) 
Heartbeat CPU 0 instructions: 390000000 cycles: 293580792 heartbeat IPC: 1.18014 cumulative IPC: 1.11491 (Simulation time: 0 hr 11 min 36 sec) 
Heartbeat CPU 0 instructions: 400000000 cycles: 301802119 heartbeat IPC: 1.21635 cumulative IPC: 1.11802 (Simulation time: 0 hr 11 min 51 sec) 
Heartbeat CPU 0 instructions: 410000001 cycles: 313855075 heartbeat IPC: 0.829672 cumulative IPC: 1.10562 (Simulation time: 0 hr 12 min 11 sec) 
Heartbeat CPU 0 instructions: 420000001 cycles: 332869901 heartbeat IPC: 0.525905 cumulative IPC: 1.06881 (Simulation time: 0 hr 12 min 36 sec) 
Heartbeat CPU 0 instructions: 430000003 cycles: 339169536 heartbeat IPC: 1.58739 cumulative IPC: 1.07949 (Simulation time: 0 hr 12 min 55 sec) 
Heartbeat CPU 0 instructions: 440000000 cycles: 345042714 heartbeat IPC: 1.70266 cumulative IPC: 1.09124 (Simulation time: 0 hr 13 min 12 sec) 
Heartbeat CPU 0 instructions: 450000000 cycles: 351037112 heartbeat IPC: 1.66822 cumulative IPC: 1.10213 (Simulation time: 0 hr 13 min 29 sec) 
Heartbeat CPU 0 instructions: 460000000 cycles: 358761920 heartbeat IPC: 1.29453 cumulative IPC: 1.1067 (Simulation time: 0 hr 13 min 45 sec) 
Heartbeat CPU 0 instructions: 470000001 cycles: 367447996 heartbeat IPC: 1.15127 cumulative IPC: 1.10786 (Simulation time: 0 hr 14 min 0 sec) 
Heartbeat CPU 0 instructions: 480000001 cycles: 375757605 heartbeat IPC: 1.20343 cumulative IPC: 1.11018 (Simulation time: 0 hr 14 min 16 sec) 
Heartbeat CPU 0 instructions: 490000003 cycles: 384050488 heartbeat IPC: 1.20585 cumulative IPC: 1.11244 (Simulation time: 0 hr 14 min 31 sec) 
Heartbeat CPU 0 instructions: 500000001 cycles: 392316763 heartbeat IPC: 1.20973 cumulative IPC: 1.11468 (Simulation time: 0 hr 14 min 47 sec) 
Heartbeat CPU 0 instructions: 510000001 cycles: 402678051 heartbeat IPC: 0.965131 cumulative IPC: 1.11049 (Simulation time: 0 hr 15 min 4 sec) 
Heartbeat CPU 0 instructions: 520000001 cycles: 423390935 heartbeat IPC: 0.482791 cumulative IPC: 1.07714 (Simulation time: 0 hr 15 min 32 sec) 
Heartbeat CPU 0 instructions: 530000001 cycles: 429705350 heartbeat IPC: 1.58368 cumulative IPC: 1.08521 (Simulation time: 0 hr 15 min 49 sec) 
Heartbeat CPU 0 instructions: 540000000 cycles: 435581624 heartbeat IPC: 1.70176 cumulative IPC: 1.09422 (Simulation time: 0 hr 16 min 7 sec) 
Heartbeat CPU 0 instructions: 550000000 cycles: 441608450 heartbeat IPC: 1.65925 cumulative IPC: 1.10257 (Simulation time: 0 hr 16 min 23 sec) 
Heartbeat CPU 0 instructions: 560000000 cycles: 448995717 heartbeat IPC: 1.35368 cumulative IPC: 1.10703 (Simulation time: 0 hr 16 min 39 sec) 
Heartbeat CPU 0 instructions: 570000000 cycles: 457470248 heartbeat IPC: 1.18001 cumulative IPC: 1.10849 (Simulation time: 0 hr 16 min 54 sec) 
Heartbeat CPU 0 instructions: 580000001 cycles: 465878230 heartbeat IPC: 1.18935 cumulative IPC: 1.11006 (Simulation time: 0 hr 17 min 10 sec) 
Heartbeat CPU 0 instructions: 590000000 cycles: 474156250 heartbeat IPC: 1.20802 cumulative IPC: 1.1119 (Simulation time: 0 hr 17 min 25 sec) 
Heartbeat CPU 0 instructions: 600000002 cycles: 482639822 heartbeat IPC: 1.17875 cumulative IPC: 1.11317 (Simulation time: 0 hr 17 min 41 sec) 
Heartbeat CPU 0 instructions: 610000003 cycles: 492633134 heartbeat IPC: 1.00067 cumulative IPC: 1.11072 (Simulation time: 0 hr 17 min 58 sec) 
Heartbeat CPU 0 instructions: 620000002 cycles: 513317415 heartbeat IPC: 0.483459 cumulative IPC: 1.08368 (Simulation time: 0 hr 18 min 25 sec) 
Heartbeat CPU 0 instructions: 630000000 cycles: 519793014 heartbeat IPC: 1.54426 cumulative IPC: 1.08981 (Simulation time: 0 hr 18 min 43 sec) 
Heartbeat CPU 0 instructions: 640000002 cycles: 525675334 heartbeat IPC: 1.70001 cumulative IPC: 1.0971 (Simulation time: 0 hr 19 min 0 sec) 
Heartbeat CPU 0 instructions: 650000000 cycles: 532341538 heartbeat IPC: 1.5001 cumulative IPC: 1.10249 (Simulation time: 0 hr 19 min 17 sec) 
Heartbeat CPU 0 instructions: 660000000 cycles: 541069825 heartbeat IPC: 1.1457 cumulative IPC: 1.10323 (Simulation time: 0 hr 19 min 32 sec) 
Heartbeat CPU 0 instructions: 670000000 cycles: 549902333 heartbeat IPC: 1.13218 cumulative IPC: 1.10373 (Simulation time: 0 hr 19 min 47 sec) 
Heartbeat CPU 0 instructions: 680000000 cycles: 557692665 heartbeat IPC: 1.28364 cumulative IPC: 1.1064 (Simulation time: 0 hr 20 min 2 sec) 
Heartbeat CPU 0 instructions: 690000002 cycles: 566317212 heartbeat IPC: 1.15948 cumulative IPC: 1.10726 (Simulation time: 0 hr 20 min 18 sec) 
Heartbeat CPU 0 instructions: 700000001 cycles: 576125894 heartbeat IPC: 1.0195 cumulative IPC: 1.10567 (Simulation time: 0 hr 20 min 34 sec) 
Heartbeat CPU 0 instructions: 710000001 cycles: 597265328 heartbeat IPC: 0.47305 cumulative IPC: 1.08195 (Simulation time: 0 hr 21 min 3 sec) 
Heartbeat CPU 0 instructions: 720000003 cycles: 604118821 heartbeat IPC: 1.45911 cumulative IPC: 1.08648 (Simulation time: 0 hr 21 min 20 sec) 
Heartbeat CPU 0 instructions: 730000000 cycles: 610083049 heartbeat IPC: 1.67666 cumulative IPC: 1.09259 (Simulation time: 0 hr 21 min 38 sec) 
Heartbeat CPU 0 instructions: 740000002 cycles: 617115389 heartbeat IPC: 1.422 cumulative IPC: 1.09656 (Simulation time: 0 hr 21 min 54 sec) 
Heartbeat CPU 0 instructions: 750000002 cycles: 625461800 heartbeat IPC: 1.19812 cumulative IPC: 1.09799 (Simulation time: 0 hr 22 min 9 sec) 
Heartbeat CPU 0 instructions: 760000000 cycles: 634187560 heartbeat IPC: 1.14603 cumulative IPC: 1.09869 (Simulation time: 0 hr 22 min 24 sec) 
Heartbeat CPU 0 instructions: 770000000 cycles: 641974341 heartbeat IPC: 1.28423 cumulative IPC: 1.10106 (Simulation time: 0 hr 22 min 39 sec) 
Heartbeat CPU 0 instructions: 780000003 cycles: 650674083 heartbeat IPC: 1.14946 cumulative IPC: 1.10174 (Simulation time: 0 hr 22 min 55 sec) 
Heartbeat CPU 0 instructions: 790000000 cycles: 660162655 heartbeat IPC: 1.0539 cumulative IPC: 1.10102 (Simulation time: 0 hr 23 min 10 sec) 
Heartbeat CPU 0 instructions: 800000000 cycles: 681397105 heartbeat IPC: 0.470933 cumulative IPC: 1.08037 (Simulation time: 0 hr 23 min 40 sec) 
Heartbeat CPU 0 instructions: 810000003 cycles: 688461137 heartbeat IPC: 1.41562 cumulative IPC: 1.08398 (Simulation time: 0 hr 23 min 57 sec) 
Heartbeat CPU 0 instructions: 820000002 cycles: 694314857 heartbeat IPC: 1.70832 cumulative IPC: 1.08952 (Simulation time: 0 hr 24 min 15 sec) 
Heartbeat CPU 0 instructions: 830000001 cycles: 701777951 heartbeat IPC: 1.33993 cumulative IPC: 1.09231 (Simulation time: 0 hr 24 min 30 sec) 
Heartbeat CPU 0 instructions: 840000000 cycles: 709532996 heartbeat IPC: 1.28948 cumulative IPC: 1.09457 (Simulation time: 0 hr 24 min 46 sec) 
Heartbeat CPU 0 instructions: 850000001 cycles: 718246032 heartbeat IPC: 1.14771 cumulative IPC: 1.09525 (Simulation time: 0 hr 25 min 1 sec) 
Heartbeat CPU 0 instructions: 860000002 cycles: 725706208 heartbeat IPC: 1.34045 cumulative IPC: 1.09789 (Simulation time: 0 hr 25 min 16 sec) 
Heartbeat CPU 0 instructions: 870000000 cycles: 734758565 heartbeat IPC: 1.10468 cumulative IPC: 1.09798 (Simulation time: 0 hr 25 min 32 sec) 
Heartbeat CPU 0 instructions: 880000000 cycles: 744391310 heartbeat IPC: 1.03813 cumulative IPC: 1.09717 (Simulation time: 0 hr 25 min 48 sec) 
Heartbeat CPU 0 instructions: 890000000 cycles: 765508150 heartbeat IPC: 0.473556 cumulative IPC: 1.07918 (Simulation time: 0 hr 26 min 17 sec) 
Heartbeat CPU 0 instructions: 900000002 cycles: 772798747 heartbeat IPC: 1.37163 cumulative IPC: 1.08206 (Simulation time: 0 hr 26 min 34 sec) 
Heartbeat CPU 0 instructions: 910000000 cycles: 778676818 heartbeat IPC: 1.70124 cumulative IPC: 1.08695 (Simulation time: 0 hr 26 min 52 sec) 
Heartbeat CPU 0 instructions: 920000001 cycles: 784510781 heartbeat IPC: 1.7141 cumulative IPC: 1.09182 (Simulation time: 0 hr 27 min 9 sec) 
Heartbeat CPU 0 instructions: 930000001 cycles: 792515372 heartbeat IPC: 1.24928 cumulative IPC: 1.09348 (Simulation time: 0 hr 27 min 25 sec) 
Heartbeat CPU 0 instructions: 940000000 cycles: 801332865 heartbeat IPC: 1.13411 cumulative IPC: 1.09395 (Simulation time: 0 hr 27 min 41 sec) 
Heartbeat CPU 0 instructions: 950000003 cycles: 809689287 heartbeat IPC: 1.19668 cumulative IPC: 1.09505 (Simulation time: 0 hr 27 min 56 sec) 
Heartbeat CPU 0 instructions: 960000001 cycles: 817877408 heartbeat IPC: 1.22128 cumulative IPC: 1.09637 (Simulation time: 0 hr 28 min 12 sec) 
Heartbeat CPU 0 instructions: 970000000 cycles: 826212938 heartbeat IPC: 1.19968 cumulative IPC: 1.09746 (Simulation time: 0 hr 28 min 29 sec) 
Heartbeat CPU 0 instructions: 980000002 cycles: 835891211 heartbeat IPC: 1.03324 cumulative IPC: 1.09668 (Simulation time: 0 hr 28 min 45 sec) 
Heartbeat CPU 0 instructions: 990000000 cycles: 856988977 heartbeat IPC: 0.473984 cumulative IPC: 1.08073 (Simulation time: 0 hr 29 min 12 sec) 
Heartbeat CPU 0 instructions: 1000000000 cycles: 863575550 heartbeat IPC: 1.51824 cumulative IPC: 1.0842 (Simulation time: 0 hr 29 min 29 sec) 
Heartbeat CPU 0 instructions: 1010000000 cycles: 869422927 heartbeat IPC: 1.71017 cumulative IPC: 1.08858 (Simulation time: 0 hr 29 min 46 sec) 
Heartbeat CPU 0 instructions: 1020000000 cycles: 875528304 heartbeat IPC: 1.6379 cumulative IPC: 1.09256 (Simulation time: 0 hr 30 min 2 sec) 
Heartbeat CPU 0 instructions: 1030000002 cycles: 884220348 heartbeat IPC: 1.15048 cumulative IPC: 1.09315 (Simulation time: 0 hr 30 min 17 sec) 
Heartbeat CPU 0 instructions: 1040000000 cycles: 891968948 heartbeat IPC: 1.29056 cumulative IPC: 1.09493 (Simulation time: 0 hr 30 min 32 sec) 
Heartbeat CPU 0 instructions: 1050000001 cycles: 899787197 heartbeat IPC: 1.27906 cumulative IPC: 1.0966 (Simulation time: 0 hr 30 min 47 sec) 
Heartbeat CPU 0 instructions: 1060000003 cycles: 908606991 heartbeat IPC: 1.13381 cumulative IPC: 1.09697 (Simulation time: 0 hr 31 min 2 sec) 
Heartbeat CPU 0 instructions: 1070000002 cycles: 917113675 heartbeat IPC: 1.17555 cumulative IPC: 1.09773 (Simulation time: 0 hr 31 min 16 sec) 
Heartbeat CPU 0 instructions: 1080000003 cycles: 935859665 heartbeat IPC: 0.533447 cumulative IPC: 1.08601 (Simulation time: 0 hr 31 min 44 sec) 
Heartbeat CPU 0 instructions: 1090000003 cycles: 947505557 heartbeat IPC: 0.858672 cumulative IPC: 1.08311 (Simulation time: 0 hr 32 min 1 sec) 
Heartbeat CPU 0 instructions: 1100000000 cycles: 953493394 heartbeat IPC: 1.67005 cumulative IPC: 1.08693 (Simulation time: 0 hr 32 min 18 sec) 
Finished CPU 0 instructions: 1000000003 cycles: 920022998 cumulative IPC: 1.08693 (Simulation time: 0 hr 32 min 18 sec) 

ChampSim completed all CPUs

Region of Interest Statistics

CPU 0 cumulative IPC: 1.08693 instructions: 1000000003 cycles: 920022998
L1D TOTAL     ACCESS:  210061548  HIT:  199847795  MISS:   10213753
L1D LOAD      ACCESS:  126604311  HIT:  123136891  MISS:    3467420
L1D RFO       ACCESS:   83457237  HIT:   76710904  MISS:    6746333
L1D PREFETCH  ACCESS:          0  HIT:          0  MISS:          0
L1D WRITEBACK ACCESS:          0  HIT:          0  MISS:          0
L1D PREFETCH  REQUESTED:          0  ISSUED:          0  USEFUL:          0  USELESS:          0
L1D AVERAGE MISS LATENCY: 290.763 cycles
L1I TOTAL     ACCESS:  166865896  HIT:  166457689  MISS:     408207
L1I LOAD      ACCESS:  166865896  HIT:  166457689  MISS:     408207
L1I RFO       ACCESS:          0  HIT:          0  MISS:          0
L1I PREFETCH  ACCESS:          0  HIT:          0  MISS:          0
L1I WRITEBACK ACCESS:          0  HIT:          0  MISS:          0
L1I PREFETCH  REQUESTED:          0  ISSUED:          0  USEFUL:          0  USELESS:          0
L1I AVERAGE MISS LATENCY: 74.5797 cycles
L2C TOTAL     ACCESS:   17800588  HIT:   11256710  MISS:    6543878
L2C LOAD      ACCESS:    3875426  HIT:    2845937  MISS:    1029489
L2C RFO       ACCESS:    6746250  HIT:    1234160  MISS:    5512090
L2C PREFETCH  ACCESS:          0  HIT:          0  MISS:          0
L2C WRITEBACK ACCESS:    7178912  HIT:    7176613  MISS:       2299
L2C PREFETCH  REQUESTED:          0  ISSUED:          0  USEFUL:          0  USELESS:          0
L2C AVERAGE MISS LATENCY: 437.776 cycles
LLC TOTAL     ACCESS:   12221918  HIT:    2751059  MISS:    9470859
LLC LOAD      ACCESS:    1029465  HIT:     497410  MISS:     532055
LLC RFO       ACCESS:    5512052  HIT:     359722  MISS:    5152330
LLC PREFETCH  ACCESS:          0  HIT:          0  MISS:          0
LLC WRITEBACK ACCESS:    5680401  HIT:    1893927  MISS:    3786474
LLC PREFETCH  REQUESTED:          0  ISSUED:          0  USEFUL:          0  USELESS:          0
LLC AVERAGE MISS LATENCY: 272.199 cycles
Major fault: 0 Minor fault: 7146
==============================
Perceptron RRIP Stats:
   Num Updates:          12719701
   Num Primary Trains:   126864
   Num Secondary Trains: 94146
==============================
primary_perceptron #0: 6 -4 8 4 0 -6 -4 -4 -6 6 2 -2 -2 -2 2 -12 
secondary_perceptron #0: 10 -6 18 6 -2 -10 -2 -4 -6 4 0 -4 0 -6 0 -2 -6 2 4 0 -18 


DRAM Statistics
 CHANNEL 0
 RQ ROW_BUFFER_HIT:    2437673  ROW_BUFFER_MISS:    3246658
 DBUS_CONGESTED:    8182169
 WQ ROW_BUFFER_HIT:    2160682  ROW_BUFFER_MISS:    3044825  FULL:    7979945

 AVG_CONGESTED_CYCLE: 6

CPU 0 Branch Prediction Accuracy: 93.7395% MPKI: 8.37522 Average ROB Occupancy at Mispredict: 32.0441

Branch types
NOT_BRANCH: 866220376 86.622%
BRANCH_DIRECT_JUMP: 7799639 0.779964%
BRANCH_INDIRECT: 50546 0.0050546%
BRANCH_CONDITIONAL: 115170924 11.5171%
BRANCH_DIRECT_CALL: 5379115 0.537911%
BRANCH_INDIRECT_CALL: 0 0%
BRANCH_RETURN: 5379110 0.537911%
BRANCH_OTHER: 0 0%

