
*** ChampSim Multicore Out-of-Order Simulator ***

Warmup Instructions: 100000000
Simulation Instructions: 1000000000
Number of CPUs: 1
LLC sets: 2048
LLC ways: 16
Off-chip DRAM Size: 4096 MB Channels: 1 Width: 64-bit Data Rate: 3200 MT/s

CPU 0 runs /scratch/user/kevin.weston/dpc3-traces/628.champsimtrace.xz
CPU 0 Bimodal branch predictor
Initialize SHIP state
Assign rand_sets[0]: 454  LLC: 2048
rand_sets[0]: 454
Assign rand_sets[1]: 1662  LLC: 2048
rand_sets[1]: 1662
Assign rand_sets[2]: 1921  LLC: 2048
rand_sets[2]: 1921
Assign rand_sets[3]: 1131  LLC: 2048
rand_sets[3]: 1131
Assign rand_sets[4]: 331  LLC: 2048
rand_sets[4]: 331
Assign rand_sets[5]: 1531  LLC: 2048
rand_sets[5]: 1531
Assign rand_sets[6]: 482  LLC: 2048
rand_sets[6]: 482
Assign rand_sets[7]: 1275  LLC: 2048
rand_sets[7]: 1275
Assign rand_sets[8]: 1876  LLC: 2048
rand_sets[8]: 1876
Assign rand_sets[9]: 2038  LLC: 2048
rand_sets[9]: 2038
Assign rand_sets[10]: 701  LLC: 2048
rand_sets[10]: 701
Assign rand_sets[11]: 479  LLC: 2048
rand_sets[11]: 479
Assign rand_sets[12]: 892  LLC: 2048
rand_sets[12]: 892
Assign rand_sets[13]: 1820  LLC: 2048
rand_sets[13]: 1820
Assign rand_sets[14]: 1505  LLC: 2048
rand_sets[14]: 1505
Assign rand_sets[15]: 1159  LLC: 2048
rand_sets[15]: 1159
Assign rand_sets[16]: 513  LLC: 2048
rand_sets[16]: 513
Assign rand_sets[17]: 703  LLC: 2048
rand_sets[17]: 703
Assign rand_sets[18]: 561  LLC: 2048
rand_sets[18]: 561
Assign rand_sets[19]: 990  LLC: 2048
rand_sets[19]: 990
Assign rand_sets[20]: 342  LLC: 2048
rand_sets[20]: 342
Assign rand_sets[21]: 882  LLC: 2048
rand_sets[21]: 882
Assign rand_sets[22]: 15  LLC: 2048
rand_sets[22]: 15
Assign rand_sets[23]: 71  LLC: 2048
rand_sets[23]: 71
Assign rand_sets[24]: 1127  LLC: 2048
rand_sets[24]: 1127
Assign rand_sets[25]: 1382  LLC: 2048
rand_sets[25]: 1382
Assign rand_sets[26]: 647  LLC: 2048
rand_sets[26]: 647
Assign rand_sets[27]: 857  LLC: 2048
rand_sets[27]: 857
Assign rand_sets[28]: 1450  LLC: 2048
rand_sets[28]: 1450
Assign rand_sets[29]: 1160  LLC: 2048
rand_sets[29]: 1160
Assign rand_sets[30]: 1852  LLC: 2048
rand_sets[30]: 1852
Assign rand_sets[31]: 1881  LLC: 2048
rand_sets[31]: 1881
Assign rand_sets[32]: 1770  LLC: 2048
rand_sets[32]: 1770
Assign rand_sets[33]: 1622  LLC: 2048
rand_sets[33]: 1622
Assign rand_sets[34]: 275  LLC: 2048
rand_sets[34]: 275
Assign rand_sets[35]: 635  LLC: 2048
rand_sets[35]: 635
Assign rand_sets[36]: 466  LLC: 2048
rand_sets[36]: 466
Assign rand_sets[37]: 1413  LLC: 2048
rand_sets[37]: 1413
Assign rand_sets[38]: 417  LLC: 2048
rand_sets[38]: 417
Assign rand_sets[39]: 472  LLC: 2048
rand_sets[39]: 472
Assign rand_sets[40]: 1340  LLC: 2048
rand_sets[40]: 1340
Assign rand_sets[41]: 852  LLC: 2048
rand_sets[41]: 852
Assign rand_sets[42]: 1365  LLC: 2048
rand_sets[42]: 1365
Assign rand_sets[43]: 47  LLC: 2048
rand_sets[43]: 47
Assign rand_sets[44]: 823  LLC: 2048
rand_sets[44]: 823
Assign rand_sets[45]: 686  LLC: 2048
rand_sets[45]: 686
Assign rand_sets[46]: 1637  LLC: 2048
rand_sets[46]: 1637
Assign rand_sets[47]: 1115  LLC: 2048
rand_sets[47]: 1115
Assign rand_sets[48]: 986  LLC: 2048
rand_sets[48]: 986
Assign rand_sets[49]: 258  LLC: 2048
rand_sets[49]: 258
Assign rand_sets[50]: 633  LLC: 2048
rand_sets[50]: 633
Assign rand_sets[51]: 920  LLC: 2048
rand_sets[51]: 920
Assign rand_sets[52]: 204  LLC: 2048
rand_sets[52]: 204
Assign rand_sets[53]: 227  LLC: 2048
rand_sets[53]: 227
Assign rand_sets[54]: 1818  LLC: 2048
rand_sets[54]: 1818
Assign rand_sets[55]: 886  LLC: 2048
rand_sets[55]: 886
Assign rand_sets[56]: 1422  LLC: 2048
rand_sets[56]: 1422
Assign rand_sets[57]: 607  LLC: 2048
rand_sets[57]: 607
Assign rand_sets[58]: 217  LLC: 2048
rand_sets[58]: 217
Assign rand_sets[59]: 1945  LLC: 2048
rand_sets[59]: 1945
Assign rand_sets[60]: 143  LLC: 2048
rand_sets[60]: 143
Assign rand_sets[61]: 1311  LLC: 2048
rand_sets[61]: 1311
Assign rand_sets[62]: 319  LLC: 2048
rand_sets[62]: 319
Assign rand_sets[63]: 1846  LLC: 2048
rand_sets[63]: 1846
Assign rand_sets[64]: 238  LLC: 2048
rand_sets[64]: 238
Assign rand_sets[65]: 67  LLC: 2048
rand_sets[65]: 67
Assign rand_sets[66]: 1912  LLC: 2048
rand_sets[66]: 1912
Assign rand_sets[67]: 1613  LLC: 2048
rand_sets[67]: 1613
Assign rand_sets[68]: 1293  LLC: 2048
rand_sets[68]: 1293
Assign rand_sets[69]: 1018  LLC: 2048
rand_sets[69]: 1018
Assign rand_sets[70]: 1982  LLC: 2048
rand_sets[70]: 1982
Assign rand_sets[71]: 1702  LLC: 2048
rand_sets[71]: 1702
Assign rand_sets[72]: 1498  LLC: 2048
rand_sets[72]: 1498
Assign rand_sets[73]: 228  LLC: 2048
rand_sets[73]: 228
Assign rand_sets[74]: 1414  LLC: 2048
rand_sets[74]: 1414
Assign rand_sets[75]: 1166  LLC: 2048
rand_sets[75]: 1166
Assign rand_sets[76]: 732  LLC: 2048
rand_sets[76]: 732
Assign rand_sets[77]: 297  LLC: 2048
rand_sets[77]: 297
Assign rand_sets[78]: 1133  LLC: 2048
rand_sets[78]: 1133
Assign rand_sets[79]: 846  LLC: 2048
rand_sets[79]: 846
Assign rand_sets[80]: 767  LLC: 2048
rand_sets[80]: 767
Assign rand_sets[81]: 1878  LLC: 2048
rand_sets[81]: 1878
Assign rand_sets[82]: 993  LLC: 2048
rand_sets[82]: 993
Assign rand_sets[83]: 1392  LLC: 2048
rand_sets[83]: 1392
Assign rand_sets[84]: 1568  LLC: 2048
rand_sets[84]: 1568
Assign rand_sets[85]: 1787  LLC: 2048
rand_sets[85]: 1787
Assign rand_sets[86]: 399  LLC: 2048
rand_sets[86]: 399
Assign rand_sets[87]: 1201  LLC: 2048
rand_sets[87]: 1201
Assign rand_sets[88]: 856  LLC: 2048
rand_sets[88]: 856
Assign rand_sets[89]: 773  LLC: 2048
rand_sets[89]: 773
Assign rand_sets[90]: 1680  LLC: 2048
rand_sets[90]: 1680
Assign rand_sets[91]: 1477  LLC: 2048
rand_sets[91]: 1477
Assign rand_sets[92]: 9  LLC: 2048
rand_sets[92]: 9
Assign rand_sets[93]: 1500  LLC: 2048
rand_sets[93]: 1500
Assign rand_sets[94]: 851  LLC: 2048
rand_sets[94]: 851
Assign rand_sets[95]: 973  LLC: 2048
rand_sets[95]: 973
Assign rand_sets[96]: 938  LLC: 2048
rand_sets[96]: 938
Assign rand_sets[97]: 1851  LLC: 2048
rand_sets[97]: 1851
Assign rand_sets[98]: 1608  LLC: 2048
rand_sets[98]: 1608
Assign rand_sets[99]: 1945  LLC: 2048
Assign rand_sets[99]: 1106  LLC: 2048
rand_sets[99]: 1106
Assign rand_sets[100]: 979  LLC: 2048
rand_sets[100]: 979
Assign rand_sets[101]: 338  LLC: 2048
rand_sets[101]: 338
Assign rand_sets[102]: 1693  LLC: 2048
rand_sets[102]: 1693
Assign rand_sets[103]: 6  LLC: 2048
rand_sets[103]: 6
Assign rand_sets[104]: 671  LLC: 2048
rand_sets[104]: 671
Assign rand_sets[105]: 490  LLC: 2048
rand_sets[105]: 490
Assign rand_sets[106]: 1461  LLC: 2048
rand_sets[106]: 1461
Assign rand_sets[107]: 1730  LLC: 2048
rand_sets[107]: 1730
Assign rand_sets[108]: 1030  LLC: 2048
rand_sets[108]: 1030
Assign rand_sets[109]: 19  LLC: 2048
rand_sets[109]: 19
Assign rand_sets[110]: 920  LLC: 2048
Assign rand_sets[110]: 329  LLC: 2048
rand_sets[110]: 329
Assign rand_sets[111]: 1714  LLC: 2048
rand_sets[111]: 1714
Assign rand_sets[112]: 1  LLC: 2048
rand_sets[112]: 1
Assign rand_sets[113]: 1822  LLC: 2048
rand_sets[113]: 1822
Assign rand_sets[114]: 172  LLC: 2048
rand_sets[114]: 172
Assign rand_sets[115]: 1586  LLC: 2048
rand_sets[115]: 1586
Assign rand_sets[116]: 648  LLC: 2048
rand_sets[116]: 648
Assign rand_sets[117]: 1329  LLC: 2048
rand_sets[117]: 1329
Assign rand_sets[118]: 668  LLC: 2048
rand_sets[118]: 668
Assign rand_sets[119]: 1874  LLC: 2048
rand_sets[119]: 1874
Assign rand_sets[120]: 70  LLC: 2048
rand_sets[120]: 70
Assign rand_sets[121]: 661  LLC: 2048
rand_sets[121]: 661
Assign rand_sets[122]: 1649  LLC: 2048
rand_sets[122]: 1649
Assign rand_sets[123]: 1590  LLC: 2048
rand_sets[123]: 1590
Assign rand_sets[124]: 911  LLC: 2048
rand_sets[124]: 911
Assign rand_sets[125]: 1367  LLC: 2048
rand_sets[125]: 1367
Assign rand_sets[126]: 1782  LLC: 2048
rand_sets[126]: 1782
Assign rand_sets[127]: 569  LLC: 2048
rand_sets[127]: 569
Heartbeat CPU 0 instructions: 10000003 cycles: 3401517 heartbeat IPC: 2.93987 cumulative IPC: 2.93987 (Simulation time: 0 hr 0 min 18 sec) 
Heartbeat CPU 0 instructions: 20000001 cycles: 6803102 heartbeat IPC: 2.93981 cumulative IPC: 2.93984 (Simulation time: 0 hr 0 min 35 sec) 
Heartbeat CPU 0 instructions: 30000003 cycles: 10203206 heartbeat IPC: 2.94109 cumulative IPC: 2.94025 (Simulation time: 0 hr 0 min 52 sec) 
Heartbeat CPU 0 instructions: 40000001 cycles: 13600684 heartbeat IPC: 2.94336 cumulative IPC: 2.94103 (Simulation time: 0 hr 1 min 10 sec) 
Heartbeat CPU 0 instructions: 50000002 cycles: 16990727 heartbeat IPC: 2.94982 cumulative IPC: 2.94278 (Simulation time: 0 hr 1 min 26 sec) 
Heartbeat CPU 0 instructions: 60000000 cycles: 20378928 heartbeat IPC: 2.95142 cumulative IPC: 2.94422 (Simulation time: 0 hr 1 min 43 sec) 
Heartbeat CPU 0 instructions: 70000002 cycles: 23752917 heartbeat IPC: 2.96385 cumulative IPC: 2.94701 (Simulation time: 0 hr 2 min 0 sec) 
Heartbeat CPU 0 instructions: 80000000 cycles: 27005264 heartbeat IPC: 3.0747 cumulative IPC: 2.96239 (Simulation time: 0 hr 2 min 15 sec) 
Heartbeat CPU 0 instructions: 90000003 cycles: 30397047 heartbeat IPC: 2.9483 cumulative IPC: 2.96081 (Simulation time: 0 hr 2 min 30 sec) 
Heartbeat CPU 0 instructions: 100000003 cycles: 33796990 heartbeat IPC: 2.94123 cumulative IPC: 2.95884 (Simulation time: 0 hr 2 min 47 sec) 

Warmup complete CPU 0 instructions: 100000003 cycles: 33796990 (Simulation time: 0 hr 2 min 47 sec) 

Heartbeat CPU 0 instructions: 110000000 cycles: 42690115 heartbeat IPC: 1.12446 cumulative IPC: 1.12446 (Simulation time: 0 hr 3 min 1 sec) 
Heartbeat CPU 0 instructions: 120000000 cycles: 51923142 heartbeat IPC: 1.08307 cumulative IPC: 1.10338 (Simulation time: 0 hr 3 min 14 sec) 
Heartbeat CPU 0 instructions: 130000002 cycles: 60484575 heartbeat IPC: 1.16803 cumulative IPC: 1.12412 (Simulation time: 0 hr 3 min 26 sec) 
Heartbeat CPU 0 instructions: 140000002 cycles: 69738843 heartbeat IPC: 1.08058 cumulative IPC: 1.11291 (Simulation time: 0 hr 3 min 37 sec) 
Heartbeat CPU 0 instructions: 150000000 cycles: 78505213 heartbeat IPC: 1.14072 cumulative IPC: 1.11836 (Simulation time: 0 hr 3 min 46 sec) 
Heartbeat CPU 0 instructions: 160000000 cycles: 87671167 heartbeat IPC: 1.09099 cumulative IPC: 1.11371 (Simulation time: 0 hr 3 min 57 sec) 
Heartbeat CPU 0 instructions: 170000002 cycles: 95904843 heartbeat IPC: 1.21452 cumulative IPC: 1.12707 (Simulation time: 0 hr 4 min 10 sec) 
Heartbeat CPU 0 instructions: 180000003 cycles: 105217584 heartbeat IPC: 1.0738 cumulative IPC: 1.12013 (Simulation time: 0 hr 4 min 26 sec) 
Heartbeat CPU 0 instructions: 190000003 cycles: 114361659 heartbeat IPC: 1.0936 cumulative IPC: 1.11712 (Simulation time: 0 hr 4 min 43 sec) 
Heartbeat CPU 0 instructions: 200000001 cycles: 123535641 heartbeat IPC: 1.09004 cumulative IPC: 1.11435 (Simulation time: 0 hr 5 min 0 sec) 
Heartbeat CPU 0 instructions: 210000000 cycles: 132683507 heartbeat IPC: 1.09315 cumulative IPC: 1.11239 (Simulation time: 0 hr 5 min 17 sec) 
Heartbeat CPU 0 instructions: 220000000 cycles: 141802781 heartbeat IPC: 1.09658 cumulative IPC: 1.11105 (Simulation time: 0 hr 5 min 33 sec) 
Heartbeat CPU 0 instructions: 230000000 cycles: 150880479 heartbeat IPC: 1.1016 cumulative IPC: 1.11032 (Simulation time: 0 hr 5 min 50 sec) 
Heartbeat CPU 0 instructions: 240000002 cycles: 159891145 heartbeat IPC: 1.1098 cumulative IPC: 1.11028 (Simulation time: 0 hr 6 min 7 sec) 
Heartbeat CPU 0 instructions: 250000002 cycles: 168717168 heartbeat IPC: 1.13301 cumulative IPC: 1.11177 (Simulation time: 0 hr 6 min 24 sec) 
Heartbeat CPU 0 instructions: 260000000 cycles: 176997359 heartbeat IPC: 1.2077 cumulative IPC: 1.11732 (Simulation time: 0 hr 6 min 38 sec) 
Heartbeat CPU 0 instructions: 270000000 cycles: 185431510 heartbeat IPC: 1.18566 cumulative IPC: 1.12112 (Simulation time: 0 hr 6 min 52 sec) 
Heartbeat CPU 0 instructions: 280000001 cycles: 193246975 heartbeat IPC: 1.27951 cumulative IPC: 1.12888 (Simulation time: 0 hr 7 min 7 sec) 
Heartbeat CPU 0 instructions: 290000002 cycles: 202292044 heartbeat IPC: 1.10557 cumulative IPC: 1.12763 (Simulation time: 0 hr 7 min 21 sec) 
Heartbeat CPU 0 instructions: 300000001 cycles: 211431916 heartbeat IPC: 1.09411 cumulative IPC: 1.1259 (Simulation time: 0 hr 7 min 35 sec) 
Heartbeat CPU 0 instructions: 310000000 cycles: 220554206 heartbeat IPC: 1.09622 cumulative IPC: 1.12445 (Simulation time: 0 hr 7 min 48 sec) 
Heartbeat CPU 0 instructions: 320000003 cycles: 230285520 heartbeat IPC: 1.02761 cumulative IPC: 1.11966 (Simulation time: 0 hr 7 min 59 sec) 
Heartbeat CPU 0 instructions: 330000000 cycles: 239608737 heartbeat IPC: 1.07259 cumulative IPC: 1.11753 (Simulation time: 0 hr 8 min 10 sec) 
Heartbeat CPU 0 instructions: 340000001 cycles: 249322315 heartbeat IPC: 1.02949 cumulative IPC: 1.11356 (Simulation time: 0 hr 8 min 21 sec) 
Heartbeat CPU 0 instructions: 350000000 cycles: 257469577 heartbeat IPC: 1.22741 cumulative IPC: 1.11771 (Simulation time: 0 hr 8 min 34 sec) 
Heartbeat CPU 0 instructions: 360000003 cycles: 266487255 heartbeat IPC: 1.10893 cumulative IPC: 1.11737 (Simulation time: 0 hr 8 min 50 sec) 
Heartbeat CPU 0 instructions: 370000001 cycles: 275878332 heartbeat IPC: 1.06484 cumulative IPC: 1.11533 (Simulation time: 0 hr 9 min 7 sec) 
Heartbeat CPU 0 instructions: 380000002 cycles: 285238140 heartbeat IPC: 1.0684 cumulative IPC: 1.11358 (Simulation time: 0 hr 9 min 25 sec) 
Heartbeat CPU 0 instructions: 390000000 cycles: 294537485 heartbeat IPC: 1.07534 cumulative IPC: 1.11222 (Simulation time: 0 hr 9 min 42 sec) 
Heartbeat CPU 0 instructions: 400000002 cycles: 303760191 heartbeat IPC: 1.08428 cumulative IPC: 1.11126 (Simulation time: 0 hr 9 min 59 sec) 
Heartbeat CPU 0 instructions: 410000002 cycles: 312959573 heartbeat IPC: 1.08703 cumulative IPC: 1.11046 (Simulation time: 0 hr 10 min 16 sec) 
Heartbeat CPU 0 instructions: 420000002 cycles: 322117286 heartbeat IPC: 1.09198 cumulative IPC: 1.10988 (Simulation time: 0 hr 10 min 33 sec) 
Heartbeat CPU 0 instructions: 430000002 cycles: 331126742 heartbeat IPC: 1.10994 cumulative IPC: 1.10988 (Simulation time: 0 hr 10 min 50 sec) 
Heartbeat CPU 0 instructions: 440000000 cycles: 338833178 heartbeat IPC: 1.29762 cumulative IPC: 1.11462 (Simulation time: 0 hr 11 min 4 sec) 
Heartbeat CPU 0 instructions: 450000002 cycles: 347690108 heartbeat IPC: 1.12906 cumulative IPC: 1.11503 (Simulation time: 0 hr 11 min 19 sec) 
Heartbeat CPU 0 instructions: 460000002 cycles: 355117066 heartbeat IPC: 1.34645 cumulative IPC: 1.12038 (Simulation time: 0 hr 11 min 33 sec) 
Heartbeat CPU 0 instructions: 470000000 cycles: 364115988 heartbeat IPC: 1.11124 cumulative IPC: 1.12013 (Simulation time: 0 hr 11 min 48 sec) 
Heartbeat CPU 0 instructions: 480000001 cycles: 373217436 heartbeat IPC: 1.09873 cumulative IPC: 1.11956 (Simulation time: 0 hr 12 min 2 sec) 
Heartbeat CPU 0 instructions: 490000001 cycles: 381586176 heartbeat IPC: 1.19492 cumulative IPC: 1.12137 (Simulation time: 0 hr 12 min 14 sec) 
Heartbeat CPU 0 instructions: 500000001 cycles: 391692290 heartbeat IPC: 0.9895 cumulative IPC: 1.11765 (Simulation time: 0 hr 12 min 26 sec) 
Heartbeat CPU 0 instructions: 510000000 cycles: 400472839 heartbeat IPC: 1.13888 cumulative IPC: 1.11815 (Simulation time: 0 hr 12 min 36 sec) 
Heartbeat CPU 0 instructions: 520000001 cycles: 410448386 heartbeat IPC: 1.00245 cumulative IPC: 1.11509 (Simulation time: 0 hr 12 min 48 sec) 
Heartbeat CPU 0 instructions: 530000002 cycles: 418667248 heartbeat IPC: 1.21671 cumulative IPC: 1.11726 (Simulation time: 0 hr 13 min 0 sec) 
Heartbeat CPU 0 instructions: 540000002 cycles: 427153111 heartbeat IPC: 1.17843 cumulative IPC: 1.11858 (Simulation time: 0 hr 13 min 14 sec) 
Heartbeat CPU 0 instructions: 550000000 cycles: 436395989 heartbeat IPC: 1.08191 cumulative IPC: 1.11774 (Simulation time: 0 hr 13 min 32 sec) 
Heartbeat CPU 0 instructions: 560000000 cycles: 445612935 heartbeat IPC: 1.08496 cumulative IPC: 1.117 (Simulation time: 0 hr 13 min 49 sec) 
Heartbeat CPU 0 instructions: 570000001 cycles: 454727130 heartbeat IPC: 1.09719 cumulative IPC: 1.11657 (Simulation time: 0 hr 14 min 6 sec) 
Heartbeat CPU 0 instructions: 580000001 cycles: 463776467 heartbeat IPC: 1.10505 cumulative IPC: 1.11633 (Simulation time: 0 hr 14 min 24 sec) 
Heartbeat CPU 0 instructions: 590000003 cycles: 472800887 heartbeat IPC: 1.1081 cumulative IPC: 1.11616 (Simulation time: 0 hr 14 min 41 sec) 
Heartbeat CPU 0 instructions: 600000001 cycles: 481786839 heartbeat IPC: 1.11285 cumulative IPC: 1.1161 (Simulation time: 0 hr 14 min 58 sec) 
Heartbeat CPU 0 instructions: 610000001 cycles: 490887188 heartbeat IPC: 1.09886 cumulative IPC: 1.11575 (Simulation time: 0 hr 15 min 15 sec) 
Heartbeat CPU 0 instructions: 620000001 cycles: 498427910 heartbeat IPC: 1.32613 cumulative IPC: 1.11917 (Simulation time: 0 hr 15 min 29 sec) 
Heartbeat CPU 0 instructions: 630000003 cycles: 507813404 heartbeat IPC: 1.06547 cumulative IPC: 1.1181 (Simulation time: 0 hr 15 min 46 sec) 
Heartbeat CPU 0 instructions: 640000000 cycles: 515886169 heartbeat IPC: 1.23873 cumulative IPC: 1.12012 (Simulation time: 0 hr 15 min 59 sec) 
Heartbeat CPU 0 instructions: 650000001 cycles: 524452832 heartbeat IPC: 1.16732 cumulative IPC: 1.12095 (Simulation time: 0 hr 16 min 15 sec) 
Heartbeat CPU 0 instructions: 660000000 cycles: 533368914 heartbeat IPC: 1.12157 cumulative IPC: 1.12096 (Simulation time: 0 hr 16 min 30 sec) 
Heartbeat CPU 0 instructions: 670000002 cycles: 541774561 heartbeat IPC: 1.18968 cumulative IPC: 1.1221 (Simulation time: 0 hr 16 min 41 sec) 
Heartbeat CPU 0 instructions: 680000003 cycles: 552456349 heartbeat IPC: 0.936173 cumulative IPC: 1.11827 (Simulation time: 0 hr 16 min 55 sec) 
Heartbeat CPU 0 instructions: 690000000 cycles: 560778898 heartbeat IPC: 1.20155 cumulative IPC: 1.11958 (Simulation time: 0 hr 17 min 4 sec) 
Heartbeat CPU 0 instructions: 700000000 cycles: 570319092 heartbeat IPC: 1.0482 cumulative IPC: 1.11831 (Simulation time: 0 hr 17 min 15 sec) 
Heartbeat CPU 0 instructions: 710000002 cycles: 579995057 heartbeat IPC: 1.03349 cumulative IPC: 1.11681 (Simulation time: 0 hr 17 min 28 sec) 
Heartbeat CPU 0 instructions: 720000001 cycles: 587682403 heartbeat IPC: 1.30084 cumulative IPC: 1.11937 (Simulation time: 0 hr 17 min 42 sec) 
Heartbeat CPU 0 instructions: 730000001 cycles: 597269414 heartbeat IPC: 1.04308 cumulative IPC: 1.11807 (Simulation time: 0 hr 17 min 59 sec) 
Heartbeat CPU 0 instructions: 740000002 cycles: 606459694 heartbeat IPC: 1.08811 cumulative IPC: 1.11759 (Simulation time: 0 hr 18 min 16 sec) 
Heartbeat CPU 0 instructions: 750000002 cycles: 615621418 heartbeat IPC: 1.0915 cumulative IPC: 1.11718 (Simulation time: 0 hr 18 min 34 sec) 
Heartbeat CPU 0 instructions: 760000003 cycles: 624722386 heartbeat IPC: 1.09878 cumulative IPC: 1.11689 (Simulation time: 0 hr 18 min 51 sec) 
Heartbeat CPU 0 instructions: 770000000 cycles: 633841558 heartbeat IPC: 1.09659 cumulative IPC: 1.11658 (Simulation time: 0 hr 19 min 8 sec) 
Heartbeat CPU 0 instructions: 780000000 cycles: 643028563 heartbeat IPC: 1.08849 cumulative IPC: 1.11616 (Simulation time: 0 hr 19 min 26 sec) 
Heartbeat CPU 0 instructions: 790000002 cycles: 652270987 heartbeat IPC: 1.08197 cumulative IPC: 1.11565 (Simulation time: 0 hr 19 min 43 sec) 
Heartbeat CPU 0 instructions: 800000000 cycles: 660529043 heartbeat IPC: 1.21094 cumulative IPC: 1.1169 (Simulation time: 0 hr 19 min 59 sec) 
Heartbeat CPU 0 instructions: 810000000 cycles: 669550332 heartbeat IPC: 1.10849 cumulative IPC: 1.11679 (Simulation time: 0 hr 20 min 15 sec) 
Heartbeat CPU 0 instructions: 820000002 cycles: 677406277 heartbeat IPC: 1.27292 cumulative IPC: 1.11869 (Simulation time: 0 hr 20 min 30 sec) 
Heartbeat CPU 0 instructions: 830000002 cycles: 685079752 heartbeat IPC: 1.30319 cumulative IPC: 1.12086 (Simulation time: 0 hr 20 min 46 sec) 
Heartbeat CPU 0 instructions: 840000003 cycles: 693485988 heartbeat IPC: 1.18959 cumulative IPC: 1.12174 (Simulation time: 0 hr 21 min 1 sec) 
Heartbeat CPU 0 instructions: 850000001 cycles: 702515049 heartbeat IPC: 1.10753 cumulative IPC: 1.12155 (Simulation time: 0 hr 21 min 13 sec) 
Heartbeat CPU 0 instructions: 860000000 cycles: 711886314 heartbeat IPC: 1.06709 cumulative IPC: 1.1208 (Simulation time: 0 hr 21 min 27 sec) 
Heartbeat CPU 0 instructions: 870000000 cycles: 721519008 heartbeat IPC: 1.03813 cumulative IPC: 1.11964 (Simulation time: 0 hr 21 min 38 sec) 
Heartbeat CPU 0 instructions: 880000000 cycles: 730920086 heartbeat IPC: 1.06371 cumulative IPC: 1.11888 (Simulation time: 0 hr 21 min 50 sec) 
Heartbeat CPU 0 instructions: 890000001 cycles: 740856527 heartbeat IPC: 1.0064 cumulative IPC: 1.1173 (Simulation time: 0 hr 22 min 1 sec) 
Heartbeat CPU 0 instructions: 900000001 cycles: 748759164 heartbeat IPC: 1.2654 cumulative IPC: 1.11894 (Simulation time: 0 hr 22 min 14 sec) 
Heartbeat CPU 0 instructions: 910000000 cycles: 757667386 heartbeat IPC: 1.12256 cumulative IPC: 1.11898 (Simulation time: 0 hr 22 min 30 sec) 
Heartbeat CPU 0 instructions: 920000002 cycles: 766794078 heartbeat IPC: 1.09569 cumulative IPC: 1.11869 (Simulation time: 0 hr 22 min 47 sec) 
Heartbeat CPU 0 instructions: 930000001 cycles: 775923876 heartbeat IPC: 1.09531 cumulative IPC: 1.11841 (Simulation time: 0 hr 23 min 5 sec) 
Heartbeat CPU 0 instructions: 940000003 cycles: 784904221 heartbeat IPC: 1.11354 cumulative IPC: 1.11835 (Simulation time: 0 hr 23 min 23 sec) 
Heartbeat CPU 0 instructions: 950000003 cycles: 793829982 heartbeat IPC: 1.12035 cumulative IPC: 1.11837 (Simulation time: 0 hr 23 min 40 sec) 
Heartbeat CPU 0 instructions: 960000002 cycles: 802778091 heartbeat IPC: 1.11755 cumulative IPC: 1.11836 (Simulation time: 0 hr 23 min 58 sec) 
Heartbeat CPU 0 instructions: 970000002 cycles: 811856148 heartbeat IPC: 1.10156 cumulative IPC: 1.11817 (Simulation time: 0 hr 24 min 15 sec) 
Heartbeat CPU 0 instructions: 980000000 cycles: 821061437 heartbeat IPC: 1.08633 cumulative IPC: 1.11779 (Simulation time: 0 hr 24 min 32 sec) 
Heartbeat CPU 0 instructions: 990000000 cycles: 828643033 heartbeat IPC: 1.31898 cumulative IPC: 1.11971 (Simulation time: 0 hr 24 min 46 sec) 
Heartbeat CPU 0 instructions: 1000000001 cycles: 837958581 heartbeat IPC: 1.07347 cumulative IPC: 1.11918 (Simulation time: 0 hr 25 min 1 sec) 
Heartbeat CPU 0 instructions: 1010000000 cycles: 845412044 heartbeat IPC: 1.34166 cumulative IPC: 1.12122 (Simulation time: 0 hr 25 min 15 sec) 
Heartbeat CPU 0 instructions: 1020000003 cycles: 854326282 heartbeat IPC: 1.1218 cumulative IPC: 1.12123 (Simulation time: 0 hr 25 min 30 sec) 
Heartbeat CPU 0 instructions: 1030000001 cycles: 863441089 heartbeat IPC: 1.09712 cumulative IPC: 1.12096 (Simulation time: 0 hr 25 min 44 sec) 
Heartbeat CPU 0 instructions: 1040000000 cycles: 871994954 heartbeat IPC: 1.16906 cumulative IPC: 1.12145 (Simulation time: 0 hr 25 min 56 sec) 
Heartbeat CPU 0 instructions: 1050000001 cycles: 882465714 heartbeat IPC: 0.955041 cumulative IPC: 1.1194 (Simulation time: 0 hr 26 min 9 sec) 
Heartbeat CPU 0 instructions: 1060000002 cycles: 891211558 heartbeat IPC: 1.1434 cumulative IPC: 1.11965 (Simulation time: 0 hr 26 min 19 sec) 
Heartbeat CPU 0 instructions: 1070000000 cycles: 901644842 heartbeat IPC: 0.958471 cumulative IPC: 1.11771 (Simulation time: 0 hr 26 min 32 sec) 
Heartbeat CPU 0 instructions: 1080000001 cycles: 909966401 heartbeat IPC: 1.2017 cumulative IPC: 1.11851 (Simulation time: 0 hr 26 min 43 sec) 
Heartbeat CPU 0 instructions: 1090000000 cycles: 918114917 heartbeat IPC: 1.22722 cumulative IPC: 1.11951 (Simulation time: 0 hr 26 min 58 sec) 
Heartbeat CPU 0 instructions: 1100000000 cycles: 927536651 heartbeat IPC: 1.06138 cumulative IPC: 1.11889 (Simulation time: 0 hr 27 min 15 sec) 
Finished CPU 0 instructions: 1000000003 cycles: 893739664 cumulative IPC: 1.11889 (Simulation time: 0 hr 27 min 15 sec) 

ChampSim completed all CPUs

Region of Interest Statistics

CPU 0 cumulative IPC: 1.11889 instructions: 1000000003 cycles: 893739664
L1D TOTAL     ACCESS:  202505466  HIT:  185957402  MISS:   16548064
L1D LOAD      ACCESS:  150448163  HIT:  139539065  MISS:   10909098
L1D RFO       ACCESS:   52057303  HIT:   46418337  MISS:    5638966
L1D PREFETCH  ACCESS:          0  HIT:          0  MISS:          0
L1D WRITEBACK ACCESS:          0  HIT:          0  MISS:          0
L1D PREFETCH  REQUESTED:          0  ISSUED:          0  USEFUL:          0  USELESS:          0
L1D AVERAGE MISS LATENCY: 75.7445 cycles
L1I TOTAL     ACCESS:  188268121  HIT:  187801067  MISS:     467054
L1I LOAD      ACCESS:  188268121  HIT:  187801067  MISS:     467054
L1I RFO       ACCESS:          0  HIT:          0  MISS:          0
L1I PREFETCH  ACCESS:          0  HIT:          0  MISS:          0
L1I WRITEBACK ACCESS:          0  HIT:          0  MISS:          0
L1I PREFETCH  REQUESTED:          0  ISSUED:          0  USEFUL:          0  USELESS:          0
L1I AVERAGE MISS LATENCY: 64.7393 cycles
L2C TOTAL     ACCESS:   24151496  HIT:   16270245  MISS:    7881251
L2C LOAD      ACCESS:   11375158  HIT:    6299923  MISS:    5075235
L2C RFO       ACCESS:    5638123  HIT:    2837173  MISS:    2800950
L2C PREFETCH  ACCESS:          0  HIT:          0  MISS:          0
L2C WRITEBACK ACCESS:    7138215  HIT:    7133149  MISS:       5066
L2C PREFETCH  REQUESTED:          0  ISSUED:          0  USEFUL:          0  USELESS:          0
L2C AVERAGE MISS LATENCY: 136.41 cycles
LLC TOTAL     ACCESS:   11691114  HIT:    7299497  MISS:    4391617
LLC LOAD      ACCESS:    5074975  HIT:    2984272  MISS:    2090703
LLC RFO       ACCESS:    2800897  HIT:    1449239  MISS:    1351658
LLC PREFETCH  ACCESS:          0  HIT:          0  MISS:          0
LLC WRITEBACK ACCESS:    3815242  HIT:    2865986  MISS:     949256
LLC PREFETCH  REQUESTED:          0  ISSUED:          0  USEFUL:          0  USELESS:          0
LLC AVERAGE MISS LATENCY: 172.078 cycles
Major fault: 0 Minor fault: 31749

DRAM Statistics
 CHANNEL 0
 RQ ROW_BUFFER_HIT:    1307465  ROW_BUFFER_MISS:    2134704
 DBUS_CONGESTED:    1884761
 WQ ROW_BUFFER_HIT:     759138  ROW_BUFFER_MISS:    1050037  FULL:     281287

 AVG_CONGESTED_CYCLE: 6

CPU 0 Branch Prediction Accuracy: 97.4355% MPKI: 4.07377 Average ROB Occupancy at Mispredict: 47.2818

Branch types
NOT_BRANCH: 841147627 84.1148%
BRANCH_DIRECT_JUMP: 2905141 0.290514%
BRANCH_INDIRECT: 40681 0.0040681%
BRANCH_CONDITIONAL: 149211941 14.9212%
BRANCH_DIRECT_CALL: 3347126 0.334713%
BRANCH_INDIRECT_CALL: 0 0%
BRANCH_RETURN: 3347125 0.334712%
BRANCH_OTHER: 0 0%

