
*** ChampSim Multicore Out-of-Order Simulator ***

Warmup Instructions: 100000000
Simulation Instructions: 1000000000
Number of CPUs: 1
LLC sets: 2048
LLC ways: 16
Off-chip DRAM Size: 4096 MB Channels: 1 Width: 64-bit Data Rate: 3200 MT/s

CPU 0 runs /scratch/user/kevin.weston/dpc3-traces/628.champsimtrace.xz
CPU 0 Bimodal branch predictor
Initialize DRRIP state
Assign rand_sets[0]: 454  LLC: 2048
rand_sets[0]: 454
Assign rand_sets[1]: 1662  LLC: 2048
rand_sets[1]: 1662
Assign rand_sets[2]: 1921  LLC: 2048
rand_sets[2]: 1921
Assign rand_sets[3]: 1131  LLC: 2048
rand_sets[3]: 1131
Assign rand_sets[4]: 331  LLC: 2048
rand_sets[4]: 331
Assign rand_sets[5]: 1531  LLC: 2048
rand_sets[5]: 1531
Assign rand_sets[6]: 482  LLC: 2048
rand_sets[6]: 482
Assign rand_sets[7]: 1275  LLC: 2048
rand_sets[7]: 1275
Assign rand_sets[8]: 1876  LLC: 2048
rand_sets[8]: 1876
Assign rand_sets[9]: 2038  LLC: 2048
rand_sets[9]: 2038
Assign rand_sets[10]: 701  LLC: 2048
rand_sets[10]: 701
Assign rand_sets[11]: 479  LLC: 2048
rand_sets[11]: 479
Assign rand_sets[12]: 892  LLC: 2048
rand_sets[12]: 892
Assign rand_sets[13]: 1820  LLC: 2048
rand_sets[13]: 1820
Assign rand_sets[14]: 1505  LLC: 2048
rand_sets[14]: 1505
Assign rand_sets[15]: 1159  LLC: 2048
rand_sets[15]: 1159
Assign rand_sets[16]: 513  LLC: 2048
rand_sets[16]: 513
Assign rand_sets[17]: 703  LLC: 2048
rand_sets[17]: 703
Assign rand_sets[18]: 561  LLC: 2048
rand_sets[18]: 561
Assign rand_sets[19]: 990  LLC: 2048
rand_sets[19]: 990
Assign rand_sets[20]: 342  LLC: 2048
rand_sets[20]: 342
Assign rand_sets[21]: 882  LLC: 2048
rand_sets[21]: 882
Assign rand_sets[22]: 15  LLC: 2048
rand_sets[22]: 15
Assign rand_sets[23]: 71  LLC: 2048
rand_sets[23]: 71
Assign rand_sets[24]: 1127  LLC: 2048
rand_sets[24]: 1127
Assign rand_sets[25]: 1382  LLC: 2048
rand_sets[25]: 1382
Assign rand_sets[26]: 647  LLC: 2048
rand_sets[26]: 647
Assign rand_sets[27]: 857  LLC: 2048
rand_sets[27]: 857
Assign rand_sets[28]: 1450  LLC: 2048
rand_sets[28]: 1450
Assign rand_sets[29]: 1160  LLC: 2048
rand_sets[29]: 1160
Assign rand_sets[30]: 1852  LLC: 2048
rand_sets[30]: 1852
Assign rand_sets[31]: 1881  LLC: 2048
rand_sets[31]: 1881
Assign rand_sets[32]: 1770  LLC: 2048
rand_sets[32]: 1770
Assign rand_sets[33]: 1622  LLC: 2048
rand_sets[33]: 1622
Assign rand_sets[34]: 275  LLC: 2048
rand_sets[34]: 275
Assign rand_sets[35]: 635  LLC: 2048
rand_sets[35]: 635
Assign rand_sets[36]: 466  LLC: 2048
rand_sets[36]: 466
Assign rand_sets[37]: 1413  LLC: 2048
rand_sets[37]: 1413
Assign rand_sets[38]: 417  LLC: 2048
rand_sets[38]: 417
Assign rand_sets[39]: 472  LLC: 2048
rand_sets[39]: 472
Assign rand_sets[40]: 1340  LLC: 2048
rand_sets[40]: 1340
Assign rand_sets[41]: 852  LLC: 2048
rand_sets[41]: 852
Assign rand_sets[42]: 1365  LLC: 2048
rand_sets[42]: 1365
Assign rand_sets[43]: 47  LLC: 2048
rand_sets[43]: 47
Assign rand_sets[44]: 823  LLC: 2048
rand_sets[44]: 823
Assign rand_sets[45]: 686  LLC: 2048
rand_sets[45]: 686
Assign rand_sets[46]: 1637  LLC: 2048
rand_sets[46]: 1637
Assign rand_sets[47]: 1115  LLC: 2048
rand_sets[47]: 1115
Assign rand_sets[48]: 986  LLC: 2048
rand_sets[48]: 986
Assign rand_sets[49]: 258  LLC: 2048
rand_sets[49]: 258
Assign rand_sets[50]: 633  LLC: 2048
rand_sets[50]: 633
Assign rand_sets[51]: 920  LLC: 2048
rand_sets[51]: 920
Assign rand_sets[52]: 204  LLC: 2048
rand_sets[52]: 204
Assign rand_sets[53]: 227  LLC: 2048
rand_sets[53]: 227
Assign rand_sets[54]: 1818  LLC: 2048
rand_sets[54]: 1818
Assign rand_sets[55]: 886  LLC: 2048
rand_sets[55]: 886
Assign rand_sets[56]: 1422  LLC: 2048
rand_sets[56]: 1422
Assign rand_sets[57]: 607  LLC: 2048
rand_sets[57]: 607
Assign rand_sets[58]: 217  LLC: 2048
rand_sets[58]: 217
Assign rand_sets[59]: 1945  LLC: 2048
rand_sets[59]: 1945
Assign rand_sets[60]: 143  LLC: 2048
rand_sets[60]: 143
Assign rand_sets[61]: 1311  LLC: 2048
rand_sets[61]: 1311
Assign rand_sets[62]: 319  LLC: 2048
rand_sets[62]: 319
Assign rand_sets[63]: 1846  LLC: 2048
rand_sets[63]: 1846
Heartbeat CPU 0 instructions: 10000003 cycles: 3401472 heartbeat IPC: 2.9399 cumulative IPC: 2.9399 (Simulation time: 0 hr 0 min 17 sec) 
Heartbeat CPU 0 instructions: 20000001 cycles: 6802966 heartbeat IPC: 2.93988 cumulative IPC: 2.93989 (Simulation time: 0 hr 0 min 34 sec) 
Heartbeat CPU 0 instructions: 30000003 cycles: 10202943 heartbeat IPC: 2.9412 cumulative IPC: 2.94033 (Simulation time: 0 hr 0 min 52 sec) 
Heartbeat CPU 0 instructions: 40000001 cycles: 13600238 heartbeat IPC: 2.94352 cumulative IPC: 2.94113 (Simulation time: 0 hr 1 min 9 sec) 
Heartbeat CPU 0 instructions: 50000002 cycles: 16990185 heartbeat IPC: 2.9499 cumulative IPC: 2.94288 (Simulation time: 0 hr 1 min 26 sec) 
Heartbeat CPU 0 instructions: 60000000 cycles: 20378186 heartbeat IPC: 2.95159 cumulative IPC: 2.94432 (Simulation time: 0 hr 1 min 43 sec) 
Heartbeat CPU 0 instructions: 70000002 cycles: 23752038 heartbeat IPC: 2.96397 cumulative IPC: 2.94712 (Simulation time: 0 hr 2 min 0 sec) 
Heartbeat CPU 0 instructions: 80000000 cycles: 27004320 heartbeat IPC: 3.07476 cumulative IPC: 2.96249 (Simulation time: 0 hr 2 min 15 sec) 
Heartbeat CPU 0 instructions: 90000003 cycles: 30396132 heartbeat IPC: 2.94828 cumulative IPC: 2.9609 (Simulation time: 0 hr 2 min 31 sec) 
Heartbeat CPU 0 instructions: 100000003 cycles: 33795997 heartbeat IPC: 2.94129 cumulative IPC: 2.95893 (Simulation time: 0 hr 2 min 49 sec) 

Warmup complete CPU 0 instructions: 100000003 cycles: 33795997 (Simulation time: 0 hr 2 min 49 sec) 

Heartbeat CPU 0 instructions: 110000000 cycles: 42981845 heartbeat IPC: 1.08863 cumulative IPC: 1.08863 (Simulation time: 0 hr 3 min 3 sec) 
Heartbeat CPU 0 instructions: 120000000 cycles: 52248900 heartbeat IPC: 1.07909 cumulative IPC: 1.08384 (Simulation time: 0 hr 3 min 16 sec) 
Heartbeat CPU 0 instructions: 130000002 cycles: 60754423 heartbeat IPC: 1.17571 cumulative IPC: 1.11282 (Simulation time: 0 hr 3 min 29 sec) 
Heartbeat CPU 0 instructions: 140000002 cycles: 69913168 heartbeat IPC: 1.09185 cumulative IPC: 1.10751 (Simulation time: 0 hr 3 min 39 sec) 
Heartbeat CPU 0 instructions: 150000000 cycles: 78782965 heartbeat IPC: 1.12742 cumulative IPC: 1.11143 (Simulation time: 0 hr 3 min 49 sec) 
Heartbeat CPU 0 instructions: 160000000 cycles: 88045246 heartbeat IPC: 1.07965 cumulative IPC: 1.10601 (Simulation time: 0 hr 3 min 59 sec) 
Heartbeat CPU 0 instructions: 170000002 cycles: 96148241 heartbeat IPC: 1.23411 cumulative IPC: 1.12265 (Simulation time: 0 hr 4 min 12 sec) 
Heartbeat CPU 0 instructions: 180000003 cycles: 105452710 heartbeat IPC: 1.07475 cumulative IPC: 1.11643 (Simulation time: 0 hr 4 min 28 sec) 
Heartbeat CPU 0 instructions: 190000003 cycles: 114805703 heartbeat IPC: 1.06918 cumulative IPC: 1.11098 (Simulation time: 0 hr 4 min 45 sec) 
Heartbeat CPU 0 instructions: 200000001 cycles: 124021213 heartbeat IPC: 1.08513 cumulative IPC: 1.10834 (Simulation time: 0 hr 5 min 2 sec) 
Heartbeat CPU 0 instructions: 210000000 cycles: 133192856 heartbeat IPC: 1.09032 cumulative IPC: 1.10667 (Simulation time: 0 hr 5 min 19 sec) 
Heartbeat CPU 0 instructions: 220000000 cycles: 142313891 heartbeat IPC: 1.09637 cumulative IPC: 1.10581 (Simulation time: 0 hr 5 min 35 sec) 
Heartbeat CPU 0 instructions: 230000000 cycles: 151459830 heartbeat IPC: 1.09338 cumulative IPC: 1.10484 (Simulation time: 0 hr 5 min 52 sec) 
Heartbeat CPU 0 instructions: 240000002 cycles: 160492380 heartbeat IPC: 1.10711 cumulative IPC: 1.105 (Simulation time: 0 hr 6 min 9 sec) 
Heartbeat CPU 0 instructions: 250000002 cycles: 169347482 heartbeat IPC: 1.12929 cumulative IPC: 1.10659 (Simulation time: 0 hr 6 min 25 sec) 
Heartbeat CPU 0 instructions: 260000000 cycles: 177719055 heartbeat IPC: 1.19452 cumulative IPC: 1.11171 (Simulation time: 0 hr 6 min 39 sec) 
Heartbeat CPU 0 instructions: 270000000 cycles: 186235536 heartbeat IPC: 1.17419 cumulative IPC: 1.1152 (Simulation time: 0 hr 6 min 53 sec) 
Heartbeat CPU 0 instructions: 280000001 cycles: 194406713 heartbeat IPC: 1.22381 cumulative IPC: 1.12072 (Simulation time: 0 hr 7 min 9 sec) 
Heartbeat CPU 0 instructions: 290000002 cycles: 203760859 heartbeat IPC: 1.06904 cumulative IPC: 1.11788 (Simulation time: 0 hr 7 min 23 sec) 
Heartbeat CPU 0 instructions: 300000001 cycles: 213201399 heartbeat IPC: 1.05926 cumulative IPC: 1.11479 (Simulation time: 0 hr 7 min 36 sec) 
Heartbeat CPU 0 instructions: 310000000 cycles: 222056289 heartbeat IPC: 1.12932 cumulative IPC: 1.11548 (Simulation time: 0 hr 7 min 49 sec) 
Heartbeat CPU 0 instructions: 320000003 cycles: 231565181 heartbeat IPC: 1.05165 cumulative IPC: 1.11241 (Simulation time: 0 hr 7 min 59 sec) 
Heartbeat CPU 0 instructions: 330000000 cycles: 241417820 heartbeat IPC: 1.01496 cumulative IPC: 1.10778 (Simulation time: 0 hr 8 min 10 sec) 
Heartbeat CPU 0 instructions: 340000001 cycles: 251014418 heartbeat IPC: 1.04204 cumulative IPC: 1.10488 (Simulation time: 0 hr 8 min 21 sec) 
Heartbeat CPU 0 instructions: 350000000 cycles: 259171915 heartbeat IPC: 1.22587 cumulative IPC: 1.10926 (Simulation time: 0 hr 8 min 34 sec) 
Heartbeat CPU 0 instructions: 360000003 cycles: 268789405 heartbeat IPC: 1.03977 cumulative IPC: 1.10641 (Simulation time: 0 hr 8 min 49 sec) 
Heartbeat CPU 0 instructions: 370000001 cycles: 278276516 heartbeat IPC: 1.05406 cumulative IPC: 1.10438 (Simulation time: 0 hr 9 min 7 sec) 
Heartbeat CPU 0 instructions: 380000002 cycles: 287625861 heartbeat IPC: 1.06959 cumulative IPC: 1.1031 (Simulation time: 0 hr 9 min 24 sec) 
Heartbeat CPU 0 instructions: 390000000 cycles: 296965312 heartbeat IPC: 1.07073 cumulative IPC: 1.10195 (Simulation time: 0 hr 9 min 41 sec) 
Heartbeat CPU 0 instructions: 400000002 cycles: 306254014 heartbeat IPC: 1.07658 cumulative IPC: 1.10109 (Simulation time: 0 hr 9 min 58 sec) 
Heartbeat CPU 0 instructions: 410000002 cycles: 315479092 heartbeat IPC: 1.084 cumulative IPC: 1.10053 (Simulation time: 0 hr 10 min 14 sec) 
Heartbeat CPU 0 instructions: 420000002 cycles: 324647222 heartbeat IPC: 1.09073 cumulative IPC: 1.10022 (Simulation time: 0 hr 10 min 31 sec) 
Heartbeat CPU 0 instructions: 430000002 cycles: 333651220 heartbeat IPC: 1.11062 cumulative IPC: 1.10053 (Simulation time: 0 hr 10 min 48 sec) 
Heartbeat CPU 0 instructions: 440000000 cycles: 341416518 heartbeat IPC: 1.28778 cumulative IPC: 1.10526 (Simulation time: 0 hr 11 min 2 sec) 
Heartbeat CPU 0 instructions: 450000002 cycles: 350440337 heartbeat IPC: 1.10818 cumulative IPC: 1.10534 (Simulation time: 0 hr 11 min 17 sec) 
Heartbeat CPU 0 instructions: 460000002 cycles: 357956983 heartbeat IPC: 1.33038 cumulative IPC: 1.11056 (Simulation time: 0 hr 11 min 31 sec) 
Heartbeat CPU 0 instructions: 470000000 cycles: 367652371 heartbeat IPC: 1.03142 cumulative IPC: 1.10826 (Simulation time: 0 hr 11 min 47 sec) 
Heartbeat CPU 0 instructions: 480000001 cycles: 377087828 heartbeat IPC: 1.05983 cumulative IPC: 1.10693 (Simulation time: 0 hr 12 min 1 sec) 
Heartbeat CPU 0 instructions: 490000001 cycles: 385377755 heartbeat IPC: 1.20628 cumulative IPC: 1.10927 (Simulation time: 0 hr 12 min 12 sec) 
Heartbeat CPU 0 instructions: 500000001 cycles: 395171615 heartbeat IPC: 1.02105 cumulative IPC: 1.10688 (Simulation time: 0 hr 12 min 24 sec) 
Heartbeat CPU 0 instructions: 510000000 cycles: 404321996 heartbeat IPC: 1.09285 cumulative IPC: 1.10654 (Simulation time: 0 hr 12 min 35 sec) 
Heartbeat CPU 0 instructions: 520000001 cycles: 414431386 heartbeat IPC: 0.989179 cumulative IPC: 1.10342 (Simulation time: 0 hr 12 min 46 sec) 
Heartbeat CPU 0 instructions: 530000002 cycles: 422622105 heartbeat IPC: 1.22089 cumulative IPC: 1.10589 (Simulation time: 0 hr 12 min 58 sec) 
Heartbeat CPU 0 instructions: 540000002 cycles: 431170220 heartbeat IPC: 1.16985 cumulative IPC: 1.10727 (Simulation time: 0 hr 13 min 13 sec) 
Heartbeat CPU 0 instructions: 550000000 cycles: 441370164 heartbeat IPC: 0.980397 cumulative IPC: 1.10409 (Simulation time: 0 hr 13 min 30 sec) 
Heartbeat CPU 0 instructions: 560000000 cycles: 450633083 heartbeat IPC: 1.07957 cumulative IPC: 1.10355 (Simulation time: 0 hr 13 min 48 sec) 
Heartbeat CPU 0 instructions: 570000001 cycles: 459803650 heartbeat IPC: 1.09045 cumulative IPC: 1.10327 (Simulation time: 0 hr 14 min 5 sec) 
Heartbeat CPU 0 instructions: 580000001 cycles: 468873584 heartbeat IPC: 1.10254 cumulative IPC: 1.10325 (Simulation time: 0 hr 14 min 22 sec) 
Heartbeat CPU 0 instructions: 590000003 cycles: 477950627 heartbeat IPC: 1.10168 cumulative IPC: 1.10322 (Simulation time: 0 hr 14 min 39 sec) 
Heartbeat CPU 0 instructions: 600000001 cycles: 486969842 heartbeat IPC: 1.10874 cumulative IPC: 1.10333 (Simulation time: 0 hr 14 min 56 sec) 
Heartbeat CPU 0 instructions: 610000001 cycles: 496124817 heartbeat IPC: 1.0923 cumulative IPC: 1.10311 (Simulation time: 0 hr 15 min 13 sec) 
Heartbeat CPU 0 instructions: 620000001 cycles: 503693771 heartbeat IPC: 1.32119 cumulative IPC: 1.10662 (Simulation time: 0 hr 15 min 27 sec) 
Heartbeat CPU 0 instructions: 630000003 cycles: 513278658 heartbeat IPC: 1.04331 cumulative IPC: 1.10536 (Simulation time: 0 hr 15 min 43 sec) 
Heartbeat CPU 0 instructions: 640000000 cycles: 521484512 heartbeat IPC: 1.21864 cumulative IPC: 1.10726 (Simulation time: 0 hr 15 min 57 sec) 
Heartbeat CPU 0 instructions: 650000001 cycles: 530739438 heartbeat IPC: 1.08051 cumulative IPC: 1.10677 (Simulation time: 0 hr 16 min 13 sec) 
Heartbeat CPU 0 instructions: 660000000 cycles: 540089652 heartbeat IPC: 1.06949 cumulative IPC: 1.10608 (Simulation time: 0 hr 16 min 28 sec) 
Heartbeat CPU 0 instructions: 670000002 cycles: 548450228 heartbeat IPC: 1.19609 cumulative IPC: 1.10754 (Simulation time: 0 hr 16 min 39 sec) 
Heartbeat CPU 0 instructions: 680000003 cycles: 558663963 heartbeat IPC: 0.979074 cumulative IPC: 1.10504 (Simulation time: 0 hr 16 min 52 sec) 
Heartbeat CPU 0 instructions: 690000000 cycles: 566992730 heartbeat IPC: 1.20066 cumulative IPC: 1.10653 (Simulation time: 0 hr 17 min 1 sec) 
Heartbeat CPU 0 instructions: 700000000 cycles: 577397488 heartbeat IPC: 0.961099 cumulative IPC: 1.10375 (Simulation time: 0 hr 17 min 14 sec) 
Heartbeat CPU 0 instructions: 710000002 cycles: 586768931 heartbeat IPC: 1.06707 cumulative IPC: 1.10313 (Simulation time: 0 hr 17 min 25 sec) 
Heartbeat CPU 0 instructions: 720000001 cycles: 594874820 heartbeat IPC: 1.23367 cumulative IPC: 1.10501 (Simulation time: 0 hr 17 min 39 sec) 
Heartbeat CPU 0 instructions: 730000001 cycles: 605128785 heartbeat IPC: 0.975232 cumulative IPC: 1.10268 (Simulation time: 0 hr 17 min 57 sec) 
Heartbeat CPU 0 instructions: 740000002 cycles: 614372946 heartbeat IPC: 1.08176 cumulative IPC: 1.10235 (Simulation time: 0 hr 18 min 14 sec) 
Heartbeat CPU 0 instructions: 750000002 cycles: 623516241 heartbeat IPC: 1.0937 cumulative IPC: 1.10222 (Simulation time: 0 hr 18 min 32 sec) 
Heartbeat CPU 0 instructions: 760000003 cycles: 632601931 heartbeat IPC: 1.10063 cumulative IPC: 1.10219 (Simulation time: 0 hr 18 min 49 sec) 
Heartbeat CPU 0 instructions: 770000000 cycles: 641741194 heartbeat IPC: 1.09418 cumulative IPC: 1.10207 (Simulation time: 0 hr 19 min 6 sec) 
Heartbeat CPU 0 instructions: 780000000 cycles: 650957506 heartbeat IPC: 1.08503 cumulative IPC: 1.10182 (Simulation time: 0 hr 19 min 23 sec) 
Heartbeat CPU 0 instructions: 790000000 cycles: 660178374 heartbeat IPC: 1.0845 cumulative IPC: 1.10156 (Simulation time: 0 hr 19 min 40 sec) 
Heartbeat CPU 0 instructions: 800000000 cycles: 668463447 heartbeat IPC: 1.20699 cumulative IPC: 1.10294 (Simulation time: 0 hr 19 min 56 sec) 
Heartbeat CPU 0 instructions: 810000000 cycles: 677691287 heartbeat IPC: 1.08368 cumulative IPC: 1.10266 (Simulation time: 0 hr 20 min 11 sec) 
Heartbeat CPU 0 instructions: 820000002 cycles: 685620505 heartbeat IPC: 1.26116 cumulative IPC: 1.10459 (Simulation time: 0 hr 20 min 26 sec) 
Heartbeat CPU 0 instructions: 830000002 cycles: 694026530 heartbeat IPC: 1.18962 cumulative IPC: 1.10567 (Simulation time: 0 hr 20 min 42 sec) 
Heartbeat CPU 0 instructions: 840000003 cycles: 702685087 heartbeat IPC: 1.15493 cumulative IPC: 1.10631 (Simulation time: 0 hr 20 min 56 sec) 
Heartbeat CPU 0 instructions: 850000001 cycles: 712064540 heartbeat IPC: 1.06616 cumulative IPC: 1.10576 (Simulation time: 0 hr 21 min 8 sec) 
Heartbeat CPU 0 instructions: 860000000 cycles: 721030775 heartbeat IPC: 1.1153 cumulative IPC: 1.10588 (Simulation time: 0 hr 21 min 22 sec) 
Heartbeat CPU 0 instructions: 870000000 cycles: 730554576 heartbeat IPC: 1.05 cumulative IPC: 1.10512 (Simulation time: 0 hr 21 min 32 sec) 
Heartbeat CPU 0 instructions: 880000000 cycles: 740657602 heartbeat IPC: 0.989802 cumulative IPC: 1.10347 (Simulation time: 0 hr 21 min 45 sec) 
Heartbeat CPU 0 instructions: 890000001 cycles: 750443689 heartbeat IPC: 1.02186 cumulative IPC: 1.10235 (Simulation time: 0 hr 21 min 56 sec) 
Heartbeat CPU 0 instructions: 900000001 cycles: 758481570 heartbeat IPC: 1.24411 cumulative IPC: 1.10393 (Simulation time: 0 hr 22 min 9 sec) 
Heartbeat CPU 0 instructions: 910000000 cycles: 768043630 heartbeat IPC: 1.0458 cumulative IPC: 1.10317 (Simulation time: 0 hr 22 min 25 sec) 
Heartbeat CPU 0 instructions: 920000002 cycles: 777269554 heartbeat IPC: 1.0839 cumulative IPC: 1.10293 (Simulation time: 0 hr 22 min 42 sec) 
Heartbeat CPU 0 instructions: 930000001 cycles: 786414516 heartbeat IPC: 1.0935 cumulative IPC: 1.10282 (Simulation time: 0 hr 23 min 0 sec) 
Heartbeat CPU 0 instructions: 940000003 cycles: 795419186 heartbeat IPC: 1.11054 cumulative IPC: 1.10291 (Simulation time: 0 hr 23 min 17 sec) 
Heartbeat CPU 0 instructions: 950000003 cycles: 804369769 heartbeat IPC: 1.11725 cumulative IPC: 1.10307 (Simulation time: 0 hr 23 min 34 sec) 
Heartbeat CPU 0 instructions: 960000002 cycles: 813333975 heartbeat IPC: 1.11555 cumulative IPC: 1.10322 (Simulation time: 0 hr 23 min 51 sec) 
Heartbeat CPU 0 instructions: 970000001 cycles: 822431745 heartbeat IPC: 1.09917 cumulative IPC: 1.10317 (Simulation time: 0 hr 24 min 8 sec) 
Heartbeat CPU 0 instructions: 980000000 cycles: 831687757 heartbeat IPC: 1.08038 cumulative IPC: 1.10291 (Simulation time: 0 hr 24 min 25 sec) 
Heartbeat CPU 0 instructions: 990000000 cycles: 839304349 heartbeat IPC: 1.31292 cumulative IPC: 1.10489 (Simulation time: 0 hr 24 min 39 sec) 
Heartbeat CPU 0 instructions: 1000000001 cycles: 848799705 heartbeat IPC: 1.05315 cumulative IPC: 1.10429 (Simulation time: 0 hr 24 min 54 sec) 
Heartbeat CPU 0 instructions: 1010000000 cycles: 856377744 heartbeat IPC: 1.3196 cumulative IPC: 1.10627 (Simulation time: 0 hr 25 min 8 sec) 
Heartbeat CPU 0 instructions: 1020000003 cycles: 866087099 heartbeat IPC: 1.02993 cumulative IPC: 1.10538 (Simulation time: 0 hr 25 min 24 sec) 
Heartbeat CPU 0 instructions: 1030000001 cycles: 875542652 heartbeat IPC: 1.05758 cumulative IPC: 1.10485 (Simulation time: 0 hr 25 min 38 sec) 
Heartbeat CPU 0 instructions: 1040000000 cycles: 884026568 heartbeat IPC: 1.1787 cumulative IPC: 1.10558 (Simulation time: 0 hr 25 min 49 sec) 
Heartbeat CPU 0 instructions: 1050000001 cycles: 894095730 heartbeat IPC: 0.993131 cumulative IPC: 1.10427 (Simulation time: 0 hr 26 min 2 sec) 
Heartbeat CPU 0 instructions: 1060000002 cycles: 903140161 heartbeat IPC: 1.10565 cumulative IPC: 1.10428 (Simulation time: 0 hr 26 min 12 sec) 
Heartbeat CPU 0 instructions: 1070000000 cycles: 913889134 heartbeat IPC: 0.930321 cumulative IPC: 1.10216 (Simulation time: 0 hr 26 min 24 sec) 
Heartbeat CPU 0 instructions: 1080000001 cycles: 922199921 heartbeat IPC: 1.20326 cumulative IPC: 1.1031 (Simulation time: 0 hr 26 min 36 sec) 
Heartbeat CPU 0 instructions: 1090000000 cycles: 930773011 heartbeat IPC: 1.16644 cumulative IPC: 1.10371 (Simulation time: 0 hr 26 min 52 sec) 
Heartbeat CPU 0 instructions: 1100000000 cycles: 940619876 heartbeat IPC: 1.01555 cumulative IPC: 1.10275 (Simulation time: 0 hr 27 min 11 sec) 
Finished CPU 0 instructions: 1000000003 cycles: 906823882 cumulative IPC: 1.10275 (Simulation time: 0 hr 27 min 11 sec) 

ChampSim completed all CPUs

Region of Interest Statistics

CPU 0 cumulative IPC: 1.10275 instructions: 1000000003 cycles: 906823882
L1D TOTAL     ACCESS:  202675400  HIT:  186127374  MISS:   16548026
L1D LOAD      ACCESS:  150435372  HIT:  139526244  MISS:   10909128
L1D RFO       ACCESS:   52240028  HIT:   46601130  MISS:    5638898
L1D PREFETCH  ACCESS:          0  HIT:          0  MISS:          0
L1D WRITEBACK ACCESS:          0  HIT:          0  MISS:          0
L1D PREFETCH  REQUESTED:          0  ISSUED:          0  USEFUL:          0  USELESS:          0
L1D AVERAGE MISS LATENCY: 75.7399 cycles
L1I TOTAL     ACCESS:  188341637  HIT:  187874583  MISS:     467054
L1I LOAD      ACCESS:  188341637  HIT:  187874583  MISS:     467054
L1I RFO       ACCESS:          0  HIT:          0  MISS:          0
L1I PREFETCH  ACCESS:          0  HIT:          0  MISS:          0
L1I WRITEBACK ACCESS:          0  HIT:          0  MISS:          0
L1I PREFETCH  REQUESTED:          0  ISSUED:          0  USEFUL:          0  USELESS:          0
L1I AVERAGE MISS LATENCY: 68.8184 cycles
L2C TOTAL     ACCESS:   24151375  HIT:   16350514  MISS:    7800861
L2C LOAD      ACCESS:   11375175  HIT:    6298256  MISS:    5076919
L2C RFO       ACCESS:    5638053  HIT:    2917845  MISS:    2720208
L2C PREFETCH  ACCESS:          0  HIT:          0  MISS:          0
L2C WRITEBACK ACCESS:    7138147  HIT:    7134413  MISS:       3734
L2C PREFETCH  REQUESTED:          0  ISSUED:          0  USEFUL:          0  USELESS:          0
L2C AVERAGE MISS LATENCY: 138.052 cycles
LLC TOTAL     ACCESS:   11539223  HIT:    7868421  MISS:    3670802
LLC LOAD      ACCESS:    5076917  HIT:    2876458  MISS:    2200459
LLC RFO       ACCESS:    2720129  HIT:    1310430  MISS:    1409699
LLC PREFETCH  ACCESS:          0  HIT:          0  MISS:          0
LLC WRITEBACK ACCESS:    3742177  HIT:    3681533  MISS:      60644
LLC PREFETCH  REQUESTED:          0  ISSUED:          0  USEFUL:          0  USELESS:          0
LLC AVERAGE MISS LATENCY: 207.195 cycles
Major fault: 0 Minor fault: 31749

DRAM Statistics
 CHANNEL 0
 RQ ROW_BUFFER_HIT:    1219039  ROW_BUFFER_MISS:    2390743
 DBUS_CONGESTED:    1982920
 WQ ROW_BUFFER_HIT:     909966  ROW_BUFFER_MISS:     979156  FULL:       2985

 AVG_CONGESTED_CYCLE: 6

CPU 0 Branch Prediction Accuracy: 97.4355% MPKI: 4.07377 Average ROB Occupancy at Mispredict: 47.5846

Branch types
NOT_BRANCH: 841147627 84.1148%
BRANCH_DIRECT_JUMP: 2905141 0.290514%
BRANCH_INDIRECT: 40681 0.0040681%
BRANCH_CONDITIONAL: 149211941 14.9212%
BRANCH_DIRECT_CALL: 3347126 0.334713%
BRANCH_INDIRECT_CALL: 0 0%
BRANCH_RETURN: 3347125 0.334712%
BRANCH_OTHER: 0 0%

