
*** ChampSim Multicore Out-of-Order Simulator ***

Warmup Instructions: 100000000
Simulation Instructions: 1000000000
Number of CPUs: 1
LLC sets: 2048
LLC ways: 16
Off-chip DRAM Size: 4096 MB Channels: 1 Width: 64-bit Data Rate: 3200 MT/s

CPU 0 runs /scratch/user/kevin.weston/dpc3-traces/628.champsimtrace.xz
CPU 0 Bimodal branch predictor
Initialize RRPV
Initialize PRRIP state
Heartbeat CPU 0 instructions: 10000003 cycles: 3401679 heartbeat IPC: 2.93973 cumulative IPC: 2.93973 (Simulation time: 0 hr 0 min 20 sec) 
Heartbeat CPU 0 instructions: 20000001 cycles: 6803662 heartbeat IPC: 2.93946 cumulative IPC: 2.93959 (Simulation time: 0 hr 0 min 40 sec) 
Heartbeat CPU 0 instructions: 30000003 cycles: 10204078 heartbeat IPC: 2.94082 cumulative IPC: 2.94 (Simulation time: 0 hr 1 min 0 sec) 
Heartbeat CPU 0 instructions: 40000001 cycles: 13601717 heartbeat IPC: 2.94322 cumulative IPC: 2.94081 (Simulation time: 0 hr 1 min 20 sec) 
Heartbeat CPU 0 instructions: 50000002 cycles: 16991981 heartbeat IPC: 2.94962 cumulative IPC: 2.94256 (Simulation time: 0 hr 1 min 40 sec) 
Heartbeat CPU 0 instructions: 60000000 cycles: 20380437 heartbeat IPC: 2.9512 cumulative IPC: 2.944 (Simulation time: 0 hr 2 min 0 sec) 
Heartbeat CPU 0 instructions: 70000002 cycles: 23754609 heartbeat IPC: 2.96369 cumulative IPC: 2.9468 (Simulation time: 0 hr 2 min 19 sec) 
Heartbeat CPU 0 instructions: 80000000 cycles: 27006928 heartbeat IPC: 3.07473 cumulative IPC: 2.9622 (Simulation time: 0 hr 2 min 37 sec) 
Heartbeat CPU 0 instructions: 90000003 cycles: 30398716 heartbeat IPC: 2.9483 cumulative IPC: 2.96065 (Simulation time: 0 hr 2 min 56 sec) 
Heartbeat CPU 0 instructions: 100000003 cycles: 33798547 heartbeat IPC: 2.94132 cumulative IPC: 2.95871 (Simulation time: 0 hr 3 min 15 sec) 

Warmup complete CPU 0 instructions: 100000003 cycles: 33798547 (Simulation time: 0 hr 3 min 15 sec) 

Heartbeat CPU 0 instructions: 110000000 cycles: 42730099 heartbeat IPC: 1.11963 cumulative IPC: 1.11963 (Simulation time: 0 hr 3 min 32 sec) 
Heartbeat CPU 0 instructions: 120000000 cycles: 51649618 heartbeat IPC: 1.12114 cumulative IPC: 1.12038 (Simulation time: 0 hr 3 min 47 sec) 
Heartbeat CPU 0 instructions: 130000002 cycles: 60433164 heartbeat IPC: 1.13849 cumulative IPC: 1.12635 (Simulation time: 0 hr 4 min 2 sec) 
Heartbeat CPU 0 instructions: 140000002 cycles: 69630243 heartbeat IPC: 1.0873 cumulative IPC: 1.11633 (Simulation time: 0 hr 4 min 14 sec) 
Heartbeat CPU 0 instructions: 150000000 cycles: 78295844 heartbeat IPC: 1.15399 cumulative IPC: 1.12366 (Simulation time: 0 hr 4 min 26 sec) 
Heartbeat CPU 0 instructions: 160000000 cycles: 87704590 heartbeat IPC: 1.06284 cumulative IPC: 1.11305 (Simulation time: 0 hr 4 min 38 sec) 
Heartbeat CPU 0 instructions: 170000002 cycles: 95700793 heartbeat IPC: 1.25059 cumulative IPC: 1.13082 (Simulation time: 0 hr 4 min 54 sec) 
Heartbeat CPU 0 instructions: 180000003 cycles: 105331591 heartbeat IPC: 1.03834 cumulative IPC: 1.11836 (Simulation time: 0 hr 5 min 13 sec) 
Heartbeat CPU 0 instructions: 190000003 cycles: 114873302 heartbeat IPC: 1.04803 cumulative IPC: 1.11009 (Simulation time: 0 hr 5 min 33 sec) 
Heartbeat CPU 0 instructions: 200000001 cycles: 124290782 heartbeat IPC: 1.06185 cumulative IPC: 1.10507 (Simulation time: 0 hr 5 min 53 sec) 
Heartbeat CPU 0 instructions: 210000000 cycles: 133628426 heartbeat IPC: 1.07093 cumulative IPC: 1.10187 (Simulation time: 0 hr 6 min 13 sec) 
Heartbeat CPU 0 instructions: 220000000 cycles: 142980848 heartbeat IPC: 1.06924 cumulative IPC: 1.09908 (Simulation time: 0 hr 6 min 32 sec) 
Heartbeat CPU 0 instructions: 230000000 cycles: 152333378 heartbeat IPC: 1.06923 cumulative IPC: 1.09672 (Simulation time: 0 hr 6 min 52 sec) 
Heartbeat CPU 0 instructions: 240000002 cycles: 161588718 heartbeat IPC: 1.08046 cumulative IPC: 1.09555 (Simulation time: 0 hr 7 min 12 sec) 
Heartbeat CPU 0 instructions: 250000002 cycles: 170584971 heartbeat IPC: 1.11157 cumulative IPC: 1.0966 (Simulation time: 0 hr 7 min 32 sec) 
Heartbeat CPU 0 instructions: 260000000 cycles: 178970067 heartbeat IPC: 1.19259 cumulative IPC: 1.10214 (Simulation time: 0 hr 7 min 48 sec) 
Heartbeat CPU 0 instructions: 270000000 cycles: 187323203 heartbeat IPC: 1.19716 cumulative IPC: 1.10731 (Simulation time: 0 hr 8 min 5 sec) 
Heartbeat CPU 0 instructions: 280000001 cycles: 195197474 heartbeat IPC: 1.26996 cumulative IPC: 1.11525 (Simulation time: 0 hr 8 min 23 sec) 
Heartbeat CPU 0 instructions: 290000002 cycles: 204263789 heartbeat IPC: 1.10298 cumulative IPC: 1.1146 (Simulation time: 0 hr 8 min 40 sec) 
Heartbeat CPU 0 instructions: 300000001 cycles: 213291422 heartbeat IPC: 1.10771 cumulative IPC: 1.11425 (Simulation time: 0 hr 8 min 55 sec) 
Heartbeat CPU 0 instructions: 310000000 cycles: 222423859 heartbeat IPC: 1.095 cumulative IPC: 1.11332 (Simulation time: 0 hr 9 min 10 sec) 
Heartbeat CPU 0 instructions: 320000003 cycles: 231783208 heartbeat IPC: 1.06845 cumulative IPC: 1.1112 (Simulation time: 0 hr 9 min 23 sec) 
Heartbeat CPU 0 instructions: 330000000 cycles: 241225189 heartbeat IPC: 1.0591 cumulative IPC: 1.10883 (Simulation time: 0 hr 9 min 35 sec) 
Heartbeat CPU 0 instructions: 340000001 cycles: 250949812 heartbeat IPC: 1.02832 cumulative IPC: 1.10522 (Simulation time: 0 hr 9 min 48 sec) 
Heartbeat CPU 0 instructions: 350000000 cycles: 259180346 heartbeat IPC: 1.21499 cumulative IPC: 1.10923 (Simulation time: 0 hr 10 min 3 sec) 
Heartbeat CPU 0 instructions: 360000003 cycles: 268795480 heartbeat IPC: 1.04003 cumulative IPC: 1.1064 (Simulation time: 0 hr 10 min 22 sec) 
Heartbeat CPU 0 instructions: 370000001 cycles: 278487248 heartbeat IPC: 1.0318 cumulative IPC: 1.10344 (Simulation time: 0 hr 10 min 42 sec) 
Heartbeat CPU 0 instructions: 380000002 cycles: 287989503 heartbeat IPC: 1.05238 cumulative IPC: 1.10153 (Simulation time: 0 hr 11 min 2 sec) 
Heartbeat CPU 0 instructions: 390000000 cycles: 297506978 heartbeat IPC: 1.0507 cumulative IPC: 1.0997 (Simulation time: 0 hr 11 min 22 sec) 
Heartbeat CPU 0 instructions: 400000002 cycles: 307046766 heartbeat IPC: 1.04824 cumulative IPC: 1.0979 (Simulation time: 0 hr 11 min 42 sec) 
Heartbeat CPU 0 instructions: 410000002 cycles: 316536158 heartbeat IPC: 1.05381 cumulative IPC: 1.09642 (Simulation time: 0 hr 12 min 2 sec) 
Heartbeat CPU 0 instructions: 420000002 cycles: 325965864 heartbeat IPC: 1.06048 cumulative IPC: 1.09526 (Simulation time: 0 hr 12 min 22 sec) 
Heartbeat CPU 0 instructions: 430000002 cycles: 335234057 heartbeat IPC: 1.07896 cumulative IPC: 1.09476 (Simulation time: 0 hr 12 min 41 sec) 
Heartbeat CPU 0 instructions: 440000000 cycles: 342975644 heartbeat IPC: 1.29172 cumulative IPC: 1.09969 (Simulation time: 0 hr 12 min 58 sec) 
Heartbeat CPU 0 instructions: 450000002 cycles: 351792252 heartbeat IPC: 1.13422 cumulative IPC: 1.10065 (Simulation time: 0 hr 13 min 16 sec) 
Heartbeat CPU 0 instructions: 460000002 cycles: 359229052 heartbeat IPC: 1.34466 cumulative IPC: 1.10623 (Simulation time: 0 hr 13 min 32 sec) 
Heartbeat CPU 0 instructions: 470000000 cycles: 368284566 heartbeat IPC: 1.1043 cumulative IPC: 1.10617 (Simulation time: 0 hr 13 min 50 sec) 
Heartbeat CPU 0 instructions: 480000001 cycles: 377389175 heartbeat IPC: 1.09834 cumulative IPC: 1.10597 (Simulation time: 0 hr 14 min 7 sec) 
Heartbeat CPU 0 instructions: 490000001 cycles: 385815730 heartbeat IPC: 1.18672 cumulative IPC: 1.1079 (Simulation time: 0 hr 14 min 21 sec) 
Heartbeat CPU 0 instructions: 500000001 cycles: 395680846 heartbeat IPC: 1.01367 cumulative IPC: 1.10533 (Simulation time: 0 hr 14 min 36 sec) 
Heartbeat CPU 0 instructions: 510000000 cycles: 404596317 heartbeat IPC: 1.12165 cumulative IPC: 1.10572 (Simulation time: 0 hr 14 min 48 sec) 
Heartbeat CPU 0 instructions: 520000001 cycles: 414759562 heartbeat IPC: 0.983938 cumulative IPC: 1.10248 (Simulation time: 0 hr 15 min 2 sec) 
Heartbeat CPU 0 instructions: 530000002 cycles: 422938604 heartbeat IPC: 1.22264 cumulative IPC: 1.105 (Simulation time: 0 hr 15 min 16 sec) 
Heartbeat CPU 0 instructions: 540000002 cycles: 431790522 heartbeat IPC: 1.1297 cumulative IPC: 1.10555 (Simulation time: 0 hr 15 min 34 sec) 
Heartbeat CPU 0 instructions: 550000000 cycles: 441455812 heartbeat IPC: 1.03463 cumulative IPC: 1.10387 (Simulation time: 0 hr 15 min 55 sec) 
Heartbeat CPU 0 instructions: 560000000 cycles: 450781549 heartbeat IPC: 1.0723 cumulative IPC: 1.10316 (Simulation time: 0 hr 16 min 15 sec) 
Heartbeat CPU 0 instructions: 570000001 cycles: 460161150 heartbeat IPC: 1.06614 cumulative IPC: 1.10235 (Simulation time: 0 hr 16 min 35 sec) 
Heartbeat CPU 0 instructions: 580000001 cycles: 469491793 heartbeat IPC: 1.07174 cumulative IPC: 1.10169 (Simulation time: 0 hr 16 min 56 sec) 
Heartbeat CPU 0 instructions: 590000003 cycles: 478840697 heartbeat IPC: 1.06964 cumulative IPC: 1.10102 (Simulation time: 0 hr 17 min 16 sec) 
Heartbeat CPU 0 instructions: 600000001 cycles: 488089601 heartbeat IPC: 1.08121 cumulative IPC: 1.10062 (Simulation time: 0 hr 17 min 36 sec) 
Heartbeat CPU 0 instructions: 610000001 cycles: 497486766 heartbeat IPC: 1.06415 cumulative IPC: 1.09988 (Simulation time: 0 hr 17 min 56 sec) 
Heartbeat CPU 0 instructions: 620000001 cycles: 505127263 heartbeat IPC: 1.30882 cumulative IPC: 1.10326 (Simulation time: 0 hr 18 min 12 sec) 
Heartbeat CPU 0 instructions: 630000003 cycles: 514628350 heartbeat IPC: 1.05251 cumulative IPC: 1.10226 (Simulation time: 0 hr 18 min 32 sec) 
Heartbeat CPU 0 instructions: 640000000 cycles: 522715254 heartbeat IPC: 1.23657 cumulative IPC: 1.10448 (Simulation time: 0 hr 18 min 48 sec) 
Heartbeat CPU 0 instructions: 650000001 cycles: 531570513 heartbeat IPC: 1.12927 cumulative IPC: 1.10492 (Simulation time: 0 hr 19 min 6 sec) 
Heartbeat CPU 0 instructions: 660000000 cycles: 540579599 heartbeat IPC: 1.10999 cumulative IPC: 1.10501 (Simulation time: 0 hr 19 min 24 sec) 
Heartbeat CPU 0 instructions: 670000002 cycles: 549008042 heartbeat IPC: 1.18646 cumulative IPC: 1.10635 (Simulation time: 0 hr 19 min 38 sec) 
Heartbeat CPU 0 instructions: 680000003 cycles: 559275595 heartbeat IPC: 0.973942 cumulative IPC: 1.10376 (Simulation time: 0 hr 19 min 54 sec) 
Heartbeat CPU 0 instructions: 690000000 cycles: 567628407 heartbeat IPC: 1.1972 cumulative IPC: 1.10522 (Simulation time: 0 hr 20 min 4 sec) 
Heartbeat CPU 0 instructions: 700000000 cycles: 577583669 heartbeat IPC: 1.00449 cumulative IPC: 1.10338 (Simulation time: 0 hr 20 min 19 sec) 
Heartbeat CPU 0 instructions: 710000002 cycles: 587151722 heartbeat IPC: 1.04514 cumulative IPC: 1.10237 (Simulation time: 0 hr 20 min 33 sec) 
Heartbeat CPU 0 instructions: 720000001 cycles: 595024448 heartbeat IPC: 1.27021 cumulative IPC: 1.10472 (Simulation time: 0 hr 20 min 50 sec) 
Heartbeat CPU 0 instructions: 730000001 cycles: 605137385 heartbeat IPC: 0.988832 cumulative IPC: 1.10267 (Simulation time: 0 hr 21 min 11 sec) 
Heartbeat CPU 0 instructions: 740000002 cycles: 614438114 heartbeat IPC: 1.07518 cumulative IPC: 1.10223 (Simulation time: 0 hr 21 min 31 sec) 
Heartbeat CPU 0 instructions: 750000002 cycles: 623800654 heartbeat IPC: 1.06809 cumulative IPC: 1.10169 (Simulation time: 0 hr 21 min 52 sec) 
Heartbeat CPU 0 instructions: 760000003 cycles: 633195225 heartbeat IPC: 1.06444 cumulative IPC: 1.10111 (Simulation time: 0 hr 22 min 13 sec) 
Heartbeat CPU 0 instructions: 770000000 cycles: 642606696 heartbeat IPC: 1.06253 cumulative IPC: 1.10051 (Simulation time: 0 hr 22 min 33 sec) 
Heartbeat CPU 0 instructions: 780000000 cycles: 651991255 heartbeat IPC: 1.06558 cumulative IPC: 1.09998 (Simulation time: 0 hr 22 min 54 sec) 
Heartbeat CPU 0 instructions: 790000002 cycles: 661516796 heartbeat IPC: 1.04981 cumulative IPC: 1.09922 (Simulation time: 0 hr 23 min 13 sec) 
Heartbeat CPU 0 instructions: 800000000 cycles: 669909045 heartbeat IPC: 1.19158 cumulative IPC: 1.10044 (Simulation time: 0 hr 23 min 32 sec) 
Heartbeat CPU 0 instructions: 810000000 cycles: 678997474 heartbeat IPC: 1.1003 cumulative IPC: 1.10044 (Simulation time: 0 hr 23 min 50 sec) 
Heartbeat CPU 0 instructions: 820000002 cycles: 686812056 heartbeat IPC: 1.27966 cumulative IPC: 1.10258 (Simulation time: 0 hr 24 min 7 sec) 
Heartbeat CPU 0 instructions: 830000002 cycles: 694555766 heartbeat IPC: 1.29137 cumulative IPC: 1.10479 (Simulation time: 0 hr 24 min 25 sec) 
Heartbeat CPU 0 instructions: 840000003 cycles: 703116984 heartbeat IPC: 1.16806 cumulative IPC: 1.1056 (Simulation time: 0 hr 24 min 42 sec) 
Heartbeat CPU 0 instructions: 850000001 cycles: 712143413 heartbeat IPC: 1.10786 cumulative IPC: 1.10563 (Simulation time: 0 hr 24 min 56 sec) 
Heartbeat CPU 0 instructions: 860000000 cycles: 721431647 heartbeat IPC: 1.07663 cumulative IPC: 1.10524 (Simulation time: 0 hr 25 min 13 sec) 
Heartbeat CPU 0 instructions: 870000000 cycles: 730825251 heartbeat IPC: 1.06455 cumulative IPC: 1.10469 (Simulation time: 0 hr 25 min 26 sec) 
Heartbeat CPU 0 instructions: 880000000 cycles: 740646901 heartbeat IPC: 1.01816 cumulative IPC: 1.10349 (Simulation time: 0 hr 25 min 40 sec) 
Heartbeat CPU 0 instructions: 890000001 cycles: 750569423 heartbeat IPC: 1.00781 cumulative IPC: 1.10217 (Simulation time: 0 hr 25 min 53 sec) 
Heartbeat CPU 0 instructions: 900000001 cycles: 758443897 heartbeat IPC: 1.26993 cumulative IPC: 1.10399 (Simulation time: 0 hr 26 min 9 sec) 
Heartbeat CPU 0 instructions: 910000000 cycles: 767848500 heartbeat IPC: 1.06331 cumulative IPC: 1.10347 (Simulation time: 0 hr 26 min 29 sec) 
Heartbeat CPU 0 instructions: 920000002 cycles: 777221275 heartbeat IPC: 1.06692 cumulative IPC: 1.10301 (Simulation time: 0 hr 26 min 49 sec) 
Heartbeat CPU 0 instructions: 930000001 cycles: 786519996 heartbeat IPC: 1.07542 cumulative IPC: 1.10267 (Simulation time: 0 hr 27 min 10 sec) 
Heartbeat CPU 0 instructions: 940000001 cycles: 795748413 heartbeat IPC: 1.08361 cumulative IPC: 1.10243 (Simulation time: 0 hr 27 min 31 sec) 
Heartbeat CPU 0 instructions: 950000003 cycles: 804938388 heartbeat IPC: 1.08814 cumulative IPC: 1.10226 (Simulation time: 0 hr 27 min 52 sec) 
Heartbeat CPU 0 instructions: 960000002 cycles: 814037098 heartbeat IPC: 1.09906 cumulative IPC: 1.10223 (Simulation time: 0 hr 28 min 13 sec) 
Heartbeat CPU 0 instructions: 970000001 cycles: 823376975 heartbeat IPC: 1.07068 cumulative IPC: 1.10185 (Simulation time: 0 hr 28 min 33 sec) 
Heartbeat CPU 0 instructions: 980000000 cycles: 832812224 heartbeat IPC: 1.05986 cumulative IPC: 1.10136 (Simulation time: 0 hr 28 min 53 sec) 
Heartbeat CPU 0 instructions: 990000000 cycles: 840455377 heartbeat IPC: 1.30836 cumulative IPC: 1.10332 (Simulation time: 0 hr 29 min 10 sec) 
Heartbeat CPU 0 instructions: 1000000001 cycles: 849897686 heartbeat IPC: 1.05906 cumulative IPC: 1.10281 (Simulation time: 0 hr 29 min 28 sec) 
Heartbeat CPU 0 instructions: 1010000000 cycles: 857459475 heartbeat IPC: 1.32244 cumulative IPC: 1.10482 (Simulation time: 0 hr 29 min 45 sec) 
Heartbeat CPU 0 instructions: 1020000003 cycles: 866736775 heartbeat IPC: 1.0779 cumulative IPC: 1.10452 (Simulation time: 0 hr 30 min 3 sec) 
Heartbeat CPU 0 instructions: 1030000001 cycles: 875746141 heartbeat IPC: 1.10996 cumulative IPC: 1.10458 (Simulation time: 0 hr 30 min 20 sec) 
Heartbeat CPU 0 instructions: 1040000000 cycles: 884323521 heartbeat IPC: 1.16586 cumulative IPC: 1.1052 (Simulation time: 0 hr 30 min 34 sec) 
Heartbeat CPU 0 instructions: 1050000001 cycles: 894477376 heartbeat IPC: 0.984848 cumulative IPC: 1.10378 (Simulation time: 0 hr 30 min 49 sec) 
Heartbeat CPU 0 instructions: 1060000002 cycles: 903394118 heartbeat IPC: 1.12149 cumulative IPC: 1.10396 (Simulation time: 0 hr 31 min 1 sec) 
Heartbeat CPU 0 instructions: 1070000000 cycles: 914189503 heartbeat IPC: 0.926322 cumulative IPC: 1.10178 (Simulation time: 0 hr 31 min 16 sec) 
Heartbeat CPU 0 instructions: 1080000001 cycles: 922443269 heartbeat IPC: 1.21157 cumulative IPC: 1.1028 (Simulation time: 0 hr 31 min 30 sec) 
Heartbeat CPU 0 instructions: 1090000000 cycles: 930808346 heartbeat IPC: 1.19545 cumulative IPC: 1.10367 (Simulation time: 0 hr 31 min 48 sec) 
Heartbeat CPU 0 instructions: 1100000000 cycles: 940701089 heartbeat IPC: 1.01084 cumulative IPC: 1.10265 (Simulation time: 0 hr 32 min 8 sec) 
Finished CPU 0 instructions: 1000000003 cycles: 906902545 cumulative IPC: 1.10265 (Simulation time: 0 hr 32 min 8 sec) 

ChampSim completed all CPUs

Region of Interest Statistics

CPU 0 cumulative IPC: 1.10265 instructions: 1000000003 cycles: 906902545
L1D TOTAL     ACCESS:  202597668  HIT:  186049573  MISS:   16548095
L1D LOAD      ACCESS:  150367294  HIT:  139458373  MISS:   10908921
L1D RFO       ACCESS:   52230374  HIT:   46591200  MISS:    5639174
L1D PREFETCH  ACCESS:          0  HIT:          0  MISS:          0
L1D WRITEBACK ACCESS:          0  HIT:          0  MISS:          0
L1D PREFETCH  REQUESTED:          0  ISSUED:          0  USEFUL:          0  USELESS:          0
L1D AVERAGE MISS LATENCY: 77.7517 cycles
L1I TOTAL     ACCESS:  188290403  HIT:  187823349  MISS:     467054
L1I LOAD      ACCESS:  188290403  HIT:  187823349  MISS:     467054
L1I RFO       ACCESS:          0  HIT:          0  MISS:          0
L1I PREFETCH  ACCESS:          0  HIT:          0  MISS:          0
L1I WRITEBACK ACCESS:          0  HIT:          0  MISS:          0
L1I PREFETCH  REQUESTED:          0  ISSUED:          0  USEFUL:          0  USELESS:          0
L1I AVERAGE MISS LATENCY: 66.457 cycles
L2C TOTAL     ACCESS:   24151694  HIT:   16336827  MISS:    7814867
L2C LOAD      ACCESS:   11374935  HIT:    6284613  MISS:    5090322
L2C RFO       ACCESS:    5638326  HIT:    2919012  MISS:    2719314
L2C PREFETCH  ACCESS:          0  HIT:          0  MISS:          0
L2C WRITEBACK ACCESS:    7138433  HIT:    7133202  MISS:       5231
L2C PREFETCH  REQUESTED:          0  ISSUED:          0  USEFUL:          0  USELESS:          0
L2C AVERAGE MISS LATENCY: 141.917 cycles
LLC TOTAL     ACCESS:   11538911  HIT:    7224584  MISS:    4314327
LLC LOAD      ACCESS:    5090262  HIT:    2853343  MISS:    2236919
LLC RFO       ACCESS:    2719256  HIT:    1346163  MISS:    1373093
LLC PREFETCH  ACCESS:          0  HIT:          0  MISS:          0
LLC WRITEBACK ACCESS:    3729393  HIT:    3025078  MISS:     704315
LLC PREFETCH  REQUESTED:          0  ISSUED:          0  USEFUL:          0  USELESS:          0
LLC AVERAGE MISS LATENCY: 183.644 cycles
Major fault: 0 Minor fault: 31749
==============================
Perceptron RRIP Stats:
   Num Updates:          12937572
   Num Primary Trains:   192085
   Num Secondary Trains: 144407
==============================
tag_perceptron #0: -5 1 3 3 7 7 -1 -7 1 1 -5 7 -3 5 -1 -7 
set_perceptron #0: -5 1 1 1 5 9 -3 -13 3 5 -3 9 -1 7 3 -1 -1 1 1 -1 -7 


DRAM Statistics
 CHANNEL 0
 RQ ROW_BUFFER_HIT:    1306207  ROW_BUFFER_MISS:    2303692
 DBUS_CONGESTED:    1913533
 WQ ROW_BUFFER_HIT:     757886  ROW_BUFFER_MISS:    1054313  FULL:     418821

 AVG_CONGESTED_CYCLE: 6

CPU 0 Branch Prediction Accuracy: 97.4355% MPKI: 4.07377 Average ROB Occupancy at Mispredict: 47.4154

Branch types
NOT_BRANCH: 841147627 84.1148%
BRANCH_DIRECT_JUMP: 2905141 0.290514%
BRANCH_INDIRECT: 40681 0.0040681%
BRANCH_CONDITIONAL: 149211941 14.9212%
BRANCH_DIRECT_CALL: 3347126 0.334713%
BRANCH_INDIRECT_CALL: 0 0%
BRANCH_RETURN: 3347125 0.334712%
BRANCH_OTHER: 0 0%

