
*** ChampSim Multicore Out-of-Order Simulator ***

Warmup Instructions: 100000000
Simulation Instructions: 1000000000
Number of CPUs: 1
LLC sets: 2048
LLC ways: 16
Off-chip DRAM Size: 4096 MB Channels: 1 Width: 64-bit Data Rate: 3200 MT/s

CPU 0 runs /scratch/user/kevin.weston/dpc3-traces/628.champsimtrace.xz
CPU 0 Bimodal branch predictor
Per-line RRPV Initialized
PRRIP State Initialized
Assign SAMPLER_SET[0]: 454  LLC: 2048
SAMPLER_SET[0]: 454
Assign SAMPLER_SET[1]: 1662  LLC: 2048
SAMPLER_SET[1]: 1662
Assign SAMPLER_SET[2]: 1921  LLC: 2048
SAMPLER_SET[2]: 1921
Assign SAMPLER_SET[3]: 1131  LLC: 2048
SAMPLER_SET[3]: 1131
Assign SAMPLER_SET[4]: 331  LLC: 2048
SAMPLER_SET[4]: 331
Assign SAMPLER_SET[5]: 1531  LLC: 2048
SAMPLER_SET[5]: 1531
Assign SAMPLER_SET[6]: 482  LLC: 2048
SAMPLER_SET[6]: 482
Assign SAMPLER_SET[7]: 1275  LLC: 2048
SAMPLER_SET[7]: 1275
Assign SAMPLER_SET[8]: 1876  LLC: 2048
SAMPLER_SET[8]: 1876
Assign SAMPLER_SET[9]: 2038  LLC: 2048
SAMPLER_SET[9]: 2038
Assign SAMPLER_SET[10]: 701  LLC: 2048
SAMPLER_SET[10]: 701
Assign SAMPLER_SET[11]: 479  LLC: 2048
SAMPLER_SET[11]: 479
Assign SAMPLER_SET[12]: 892  LLC: 2048
SAMPLER_SET[12]: 892
Assign SAMPLER_SET[13]: 1820  LLC: 2048
SAMPLER_SET[13]: 1820
Assign SAMPLER_SET[14]: 1505  LLC: 2048
SAMPLER_SET[14]: 1505
Assign SAMPLER_SET[15]: 1159  LLC: 2048
SAMPLER_SET[15]: 1159
Assign SAMPLER_SET[16]: 513  LLC: 2048
SAMPLER_SET[16]: 513
Assign SAMPLER_SET[17]: 703  LLC: 2048
SAMPLER_SET[17]: 703
Assign SAMPLER_SET[18]: 561  LLC: 2048
SAMPLER_SET[18]: 561
Assign SAMPLER_SET[19]: 990  LLC: 2048
SAMPLER_SET[19]: 990
Assign SAMPLER_SET[20]: 342  LLC: 2048
SAMPLER_SET[20]: 342
Assign SAMPLER_SET[21]: 882  LLC: 2048
SAMPLER_SET[21]: 882
Assign SAMPLER_SET[22]: 15  LLC: 2048
SAMPLER_SET[22]: 15
Assign SAMPLER_SET[23]: 71  LLC: 2048
SAMPLER_SET[23]: 71
Assign SAMPLER_SET[24]: 1127  LLC: 2048
SAMPLER_SET[24]: 1127
Assign SAMPLER_SET[25]: 1382  LLC: 2048
SAMPLER_SET[25]: 1382
Assign SAMPLER_SET[26]: 647  LLC: 2048
SAMPLER_SET[26]: 647
Assign SAMPLER_SET[27]: 857  LLC: 2048
SAMPLER_SET[27]: 857
Assign SAMPLER_SET[28]: 1450  LLC: 2048
SAMPLER_SET[28]: 1450
Assign SAMPLER_SET[29]: 1160  LLC: 2048
SAMPLER_SET[29]: 1160
Assign SAMPLER_SET[30]: 1852  LLC: 2048
SAMPLER_SET[30]: 1852
Assign SAMPLER_SET[31]: 1881  LLC: 2048
SAMPLER_SET[31]: 1881
Assign SAMPLER_SET[32]: 1770  LLC: 2048
SAMPLER_SET[32]: 1770
Assign SAMPLER_SET[33]: 1622  LLC: 2048
SAMPLER_SET[33]: 1622
Assign SAMPLER_SET[34]: 275  LLC: 2048
SAMPLER_SET[34]: 275
Assign SAMPLER_SET[35]: 635  LLC: 2048
SAMPLER_SET[35]: 635
Assign SAMPLER_SET[36]: 466  LLC: 2048
SAMPLER_SET[36]: 466
Assign SAMPLER_SET[37]: 1413  LLC: 2048
SAMPLER_SET[37]: 1413
Assign SAMPLER_SET[38]: 417  LLC: 2048
SAMPLER_SET[38]: 417
Assign SAMPLER_SET[39]: 472  LLC: 2048
SAMPLER_SET[39]: 472
Assign SAMPLER_SET[40]: 1340  LLC: 2048
SAMPLER_SET[40]: 1340
Assign SAMPLER_SET[41]: 852  LLC: 2048
SAMPLER_SET[41]: 852
Assign SAMPLER_SET[42]: 1365  LLC: 2048
SAMPLER_SET[42]: 1365
Assign SAMPLER_SET[43]: 47  LLC: 2048
SAMPLER_SET[43]: 47
Assign SAMPLER_SET[44]: 823  LLC: 2048
SAMPLER_SET[44]: 823
Assign SAMPLER_SET[45]: 686  LLC: 2048
SAMPLER_SET[45]: 686
Assign SAMPLER_SET[46]: 1637  LLC: 2048
SAMPLER_SET[46]: 1637
Assign SAMPLER_SET[47]: 1115  LLC: 2048
SAMPLER_SET[47]: 1115
Assign SAMPLER_SET[48]: 986  LLC: 2048
SAMPLER_SET[48]: 986
Assign SAMPLER_SET[49]: 258  LLC: 2048
SAMPLER_SET[49]: 258
Assign SAMPLER_SET[50]: 633  LLC: 2048
SAMPLER_SET[50]: 633
Assign SAMPLER_SET[51]: 920  LLC: 2048
SAMPLER_SET[51]: 920
Assign SAMPLER_SET[52]: 204  LLC: 2048
SAMPLER_SET[52]: 204
Assign SAMPLER_SET[53]: 227  LLC: 2048
SAMPLER_SET[53]: 227
Assign SAMPLER_SET[54]: 1818  LLC: 2048
SAMPLER_SET[54]: 1818
Assign SAMPLER_SET[55]: 886  LLC: 2048
SAMPLER_SET[55]: 886
Assign SAMPLER_SET[56]: 1422  LLC: 2048
SAMPLER_SET[56]: 1422
Assign SAMPLER_SET[57]: 607  LLC: 2048
SAMPLER_SET[57]: 607
Assign SAMPLER_SET[58]: 217  LLC: 2048
SAMPLER_SET[58]: 217
Assign SAMPLER_SET[59]: 1945  LLC: 2048
SAMPLER_SET[59]: 1945
Assign SAMPLER_SET[60]: 143  LLC: 2048
SAMPLER_SET[60]: 143
Assign SAMPLER_SET[61]: 1311  LLC: 2048
SAMPLER_SET[61]: 1311
Assign SAMPLER_SET[62]: 319  LLC: 2048
SAMPLER_SET[62]: 319
Assign SAMPLER_SET[63]: 1846  LLC: 2048
SAMPLER_SET[63]: 1846
Heartbeat CPU 0 instructions: 10000003 cycles: 3401566 heartbeat IPC: 2.93982 cumulative IPC: 2.93982 (Simulation time: 0 hr 0 min 18 sec) 
Heartbeat CPU 0 instructions: 20000001 cycles: 6803477 heartbeat IPC: 2.93952 cumulative IPC: 2.93967 (Simulation time: 0 hr 0 min 36 sec) 
Heartbeat CPU 0 instructions: 30000003 cycles: 10203986 heartbeat IPC: 2.94074 cumulative IPC: 2.94003 (Simulation time: 0 hr 0 min 54 sec) 
Heartbeat CPU 0 instructions: 40000001 cycles: 13601611 heartbeat IPC: 2.94323 cumulative IPC: 2.94083 (Simulation time: 0 hr 1 min 12 sec) 
Heartbeat CPU 0 instructions: 50000002 cycles: 16992054 heartbeat IPC: 2.94947 cumulative IPC: 2.94255 (Simulation time: 0 hr 1 min 30 sec) 
Heartbeat CPU 0 instructions: 60000000 cycles: 20380529 heartbeat IPC: 2.95118 cumulative IPC: 2.94399 (Simulation time: 0 hr 1 min 48 sec) 
Heartbeat CPU 0 instructions: 70000002 cycles: 23754620 heartbeat IPC: 2.96376 cumulative IPC: 2.9468 (Simulation time: 0 hr 2 min 6 sec) 
Heartbeat CPU 0 instructions: 80000000 cycles: 27007012 heartbeat IPC: 3.07466 cumulative IPC: 2.96219 (Simulation time: 0 hr 2 min 22 sec) 
Heartbeat CPU 0 instructions: 90000003 cycles: 30399007 heartbeat IPC: 2.94812 cumulative IPC: 2.96062 (Simulation time: 0 hr 2 min 38 sec) 
Heartbeat CPU 0 instructions: 100000003 cycles: 33798823 heartbeat IPC: 2.94134 cumulative IPC: 2.95868 (Simulation time: 0 hr 2 min 56 sec) 

Warmup complete CPU 0 instructions: 100000003 cycles: 33798823 (Simulation time: 0 hr 2 min 56 sec) 

Heartbeat CPU 0 instructions: 110000000 cycles: 43581132 heartbeat IPC: 1.02225 cumulative IPC: 1.02225 (Simulation time: 0 hr 3 min 11 sec) 
Heartbeat CPU 0 instructions: 120000000 cycles: 52761122 heartbeat IPC: 1.08933 cumulative IPC: 1.05472 (Simulation time: 0 hr 3 min 25 sec) 
Heartbeat CPU 0 instructions: 130000002 cycles: 61631153 heartbeat IPC: 1.12739 cumulative IPC: 1.07788 (Simulation time: 0 hr 3 min 38 sec) 
Heartbeat CPU 0 instructions: 140000002 cycles: 71141518 heartbeat IPC: 1.05148 cumulative IPC: 1.07116 (Simulation time: 0 hr 3 min 49 sec) 
Heartbeat CPU 0 instructions: 150000000 cycles: 79884088 heartbeat IPC: 1.14383 cumulative IPC: 1.08495 (Simulation time: 0 hr 4 min 0 sec) 
Heartbeat CPU 0 instructions: 160000000 cycles: 89228529 heartbeat IPC: 1.07016 cumulative IPC: 1.08245 (Simulation time: 0 hr 4 min 11 sec) 
Heartbeat CPU 0 instructions: 170000002 cycles: 97326857 heartbeat IPC: 1.23482 cumulative IPC: 1.10188 (Simulation time: 0 hr 4 min 25 sec) 
Heartbeat CPU 0 instructions: 180000003 cycles: 107167148 heartbeat IPC: 1.01623 cumulative IPC: 1.09039 (Simulation time: 0 hr 4 min 42 sec) 
Heartbeat CPU 0 instructions: 190000003 cycles: 116651383 heartbeat IPC: 1.05438 cumulative IPC: 1.08627 (Simulation time: 0 hr 5 min 0 sec) 
Heartbeat CPU 0 instructions: 200000001 cycles: 126076936 heartbeat IPC: 1.06095 cumulative IPC: 1.08368 (Simulation time: 0 hr 5 min 18 sec) 
Heartbeat CPU 0 instructions: 210000000 cycles: 135649726 heartbeat IPC: 1.04463 cumulative IPC: 1.08001 (Simulation time: 0 hr 5 min 35 sec) 
Heartbeat CPU 0 instructions: 220000000 cycles: 144952288 heartbeat IPC: 1.07497 cumulative IPC: 1.07959 (Simulation time: 0 hr 5 min 53 sec) 
Heartbeat CPU 0 instructions: 230000000 cycles: 154273066 heartbeat IPC: 1.07287 cumulative IPC: 1.07907 (Simulation time: 0 hr 6 min 11 sec) 
Heartbeat CPU 0 instructions: 240000002 cycles: 163454949 heartbeat IPC: 1.0891 cumulative IPC: 1.07978 (Simulation time: 0 hr 6 min 28 sec) 
Heartbeat CPU 0 instructions: 250000002 cycles: 172416450 heartbeat IPC: 1.11588 cumulative IPC: 1.08211 (Simulation time: 0 hr 6 min 46 sec) 
Heartbeat CPU 0 instructions: 260000000 cycles: 181357452 heartbeat IPC: 1.11844 cumulative IPC: 1.08431 (Simulation time: 0 hr 7 min 1 sec) 
Heartbeat CPU 0 instructions: 270000000 cycles: 190008853 heartbeat IPC: 1.15588 cumulative IPC: 1.08828 (Simulation time: 0 hr 7 min 17 sec) 
Heartbeat CPU 0 instructions: 280000001 cycles: 198641972 heartbeat IPC: 1.15833 cumulative IPC: 1.09195 (Simulation time: 0 hr 7 min 33 sec) 
Heartbeat CPU 0 instructions: 290000002 cycles: 208630378 heartbeat IPC: 1.00116 cumulative IPC: 1.08676 (Simulation time: 0 hr 7 min 49 sec) 
Heartbeat CPU 0 instructions: 300000001 cycles: 217830988 heartbeat IPC: 1.08688 cumulative IPC: 1.08677 (Simulation time: 0 hr 8 min 3 sec) 
Heartbeat CPU 0 instructions: 310000000 cycles: 227297708 heartbeat IPC: 1.05633 cumulative IPC: 1.08528 (Simulation time: 0 hr 8 min 17 sec) 
Heartbeat CPU 0 instructions: 320000003 cycles: 237174401 heartbeat IPC: 1.01248 cumulative IPC: 1.08174 (Simulation time: 0 hr 8 min 29 sec) 
Heartbeat CPU 0 instructions: 330000000 cycles: 246715133 heartbeat IPC: 1.04814 cumulative IPC: 1.08024 (Simulation time: 0 hr 8 min 41 sec) 
Heartbeat CPU 0 instructions: 340000001 cycles: 256394498 heartbeat IPC: 1.03313 cumulative IPC: 1.07819 (Simulation time: 0 hr 8 min 52 sec) 
Heartbeat CPU 0 instructions: 350000000 cycles: 264495313 heartbeat IPC: 1.23444 cumulative IPC: 1.08367 (Simulation time: 0 hr 9 min 6 sec) 
Heartbeat CPU 0 instructions: 360000003 cycles: 274050521 heartbeat IPC: 1.04655 cumulative IPC: 1.0822 (Simulation time: 0 hr 9 min 23 sec) 
Heartbeat CPU 0 instructions: 370000001 cycles: 284137794 heartbeat IPC: 0.991348 cumulative IPC: 1.07854 (Simulation time: 0 hr 9 min 41 sec) 
Heartbeat CPU 0 instructions: 380000002 cycles: 293740357 heartbeat IPC: 1.04139 cumulative IPC: 1.07717 (Simulation time: 0 hr 10 min 0 sec) 
Heartbeat CPU 0 instructions: 390000000 cycles: 303179770 heartbeat IPC: 1.05939 cumulative IPC: 1.07654 (Simulation time: 0 hr 10 min 18 sec) 
Heartbeat CPU 0 instructions: 400000002 cycles: 312788488 heartbeat IPC: 1.04072 cumulative IPC: 1.07531 (Simulation time: 0 hr 10 min 36 sec) 
Heartbeat CPU 0 instructions: 410000002 cycles: 322354461 heartbeat IPC: 1.04537 cumulative IPC: 1.07432 (Simulation time: 0 hr 10 min 55 sec) 
Heartbeat CPU 0 instructions: 420000002 cycles: 332047383 heartbeat IPC: 1.03168 cumulative IPC: 1.07293 (Simulation time: 0 hr 11 min 13 sec) 
Heartbeat CPU 0 instructions: 430000002 cycles: 341097983 heartbeat IPC: 1.1049 cumulative IPC: 1.07387 (Simulation time: 0 hr 11 min 31 sec) 
Heartbeat CPU 0 instructions: 440000000 cycles: 349203087 heartbeat IPC: 1.23379 cumulative IPC: 1.07798 (Simulation time: 0 hr 11 min 46 sec) 
Heartbeat CPU 0 instructions: 450000002 cycles: 358080942 heartbeat IPC: 1.1264 cumulative IPC: 1.07931 (Simulation time: 0 hr 12 min 2 sec) 
Heartbeat CPU 0 instructions: 460000002 cycles: 365688500 heartbeat IPC: 1.31448 cumulative IPC: 1.0847 (Simulation time: 0 hr 12 min 17 sec) 
Heartbeat CPU 0 instructions: 470000000 cycles: 375588334 heartbeat IPC: 1.01012 cumulative IPC: 1.08254 (Simulation time: 0 hr 12 min 34 sec) 
Heartbeat CPU 0 instructions: 480000001 cycles: 384828991 heartbeat IPC: 1.08217 cumulative IPC: 1.08253 (Simulation time: 0 hr 12 min 49 sec) 
Heartbeat CPU 0 instructions: 490000001 cycles: 393299989 heartbeat IPC: 1.1805 cumulative IPC: 1.08484 (Simulation time: 0 hr 13 min 2 sec) 
Heartbeat CPU 0 instructions: 500000001 cycles: 404230353 heartbeat IPC: 0.914883 cumulative IPC: 1.07982 (Simulation time: 0 hr 13 min 16 sec) 
Heartbeat CPU 0 instructions: 510000000 cycles: 413131094 heartbeat IPC: 1.1235 cumulative IPC: 1.08085 (Simulation time: 0 hr 13 min 27 sec) 
Heartbeat CPU 0 instructions: 520000001 cycles: 423194036 heartbeat IPC: 0.993745 cumulative IPC: 1.0786 (Simulation time: 0 hr 13 min 40 sec) 
Heartbeat CPU 0 instructions: 530000002 cycles: 431324385 heartbeat IPC: 1.22996 cumulative IPC: 1.08169 (Simulation time: 0 hr 13 min 52 sec) 
Heartbeat CPU 0 instructions: 540000002 cycles: 440172431 heartbeat IPC: 1.13019 cumulative IPC: 1.08275 (Simulation time: 0 hr 14 min 8 sec) 
Heartbeat CPU 0 instructions: 550000000 cycles: 450422531 heartbeat IPC: 0.9756 cumulative IPC: 1.08011 (Simulation time: 0 hr 14 min 27 sec) 
Heartbeat CPU 0 instructions: 560000000 cycles: 460020691 heartbeat IPC: 1.04187 cumulative IPC: 1.07925 (Simulation time: 0 hr 14 min 46 sec) 
Heartbeat CPU 0 instructions: 570000001 cycles: 469445046 heartbeat IPC: 1.06108 cumulative IPC: 1.07886 (Simulation time: 0 hr 15 min 4 sec) 
Heartbeat CPU 0 instructions: 580000001 cycles: 478878348 heartbeat IPC: 1.06007 cumulative IPC: 1.07846 (Simulation time: 0 hr 15 min 22 sec) 
Heartbeat CPU 0 instructions: 590000003 cycles: 488160582 heartbeat IPC: 1.07733 cumulative IPC: 1.07844 (Simulation time: 0 hr 15 min 41 sec) 
Heartbeat CPU 0 instructions: 600000001 cycles: 497564196 heartbeat IPC: 1.06342 cumulative IPC: 1.07813 (Simulation time: 0 hr 15 min 59 sec) 
Heartbeat CPU 0 instructions: 610000001 cycles: 506887196 heartbeat IPC: 1.07262 cumulative IPC: 1.07802 (Simulation time: 0 hr 16 min 17 sec) 
Heartbeat CPU 0 instructions: 620000001 cycles: 514506078 heartbeat IPC: 1.31253 cumulative IPC: 1.08174 (Simulation time: 0 hr 16 min 31 sec) 
Heartbeat CPU 0 instructions: 630000003 cycles: 524453352 heartbeat IPC: 1.0053 cumulative IPC: 1.08019 (Simulation time: 0 hr 16 min 49 sec) 
Heartbeat CPU 0 instructions: 640000000 cycles: 532803603 heartbeat IPC: 1.19757 cumulative IPC: 1.08215 (Simulation time: 0 hr 17 min 4 sec) 
Heartbeat CPU 0 instructions: 650000001 cycles: 543310718 heartbeat IPC: 0.951736 cumulative IPC: 1.07946 (Simulation time: 0 hr 17 min 22 sec) 
Heartbeat CPU 0 instructions: 660000000 cycles: 552503043 heartbeat IPC: 1.08786 cumulative IPC: 1.07961 (Simulation time: 0 hr 17 min 39 sec) 
Heartbeat CPU 0 instructions: 670000002 cycles: 560859875 heartbeat IPC: 1.19663 cumulative IPC: 1.08147 (Simulation time: 0 hr 17 min 51 sec) 
Heartbeat CPU 0 instructions: 680000003 cycles: 571806896 heartbeat IPC: 0.913491 cumulative IPC: 1.07805 (Simulation time: 0 hr 18 min 5 sec) 
Heartbeat CPU 0 instructions: 690000000 cycles: 580160038 heartbeat IPC: 1.19715 cumulative IPC: 1.07987 (Simulation time: 0 hr 18 min 14 sec) 
Heartbeat CPU 0 instructions: 700000000 cycles: 589775079 heartbeat IPC: 1.04004 cumulative IPC: 1.07918 (Simulation time: 0 hr 18 min 27 sec) 
Heartbeat CPU 0 instructions: 710000002 cycles: 599428791 heartbeat IPC: 1.03587 cumulative IPC: 1.07844 (Simulation time: 0 hr 18 min 40 sec) 
Heartbeat CPU 0 instructions: 720000001 cycles: 607586693 heartbeat IPC: 1.22581 cumulative IPC: 1.08054 (Simulation time: 0 hr 18 min 54 sec) 
Heartbeat CPU 0 instructions: 730000001 cycles: 618367581 heartbeat IPC: 0.927567 cumulative IPC: 1.07772 (Simulation time: 0 hr 19 min 13 sec) 
Heartbeat CPU 0 instructions: 740000002 cycles: 627965446 heartbeat IPC: 1.0419 cumulative IPC: 1.07714 (Simulation time: 0 hr 19 min 31 sec) 
Heartbeat CPU 0 instructions: 750000002 cycles: 637581861 heartbeat IPC: 1.03989 cumulative IPC: 1.07655 (Simulation time: 0 hr 19 min 50 sec) 
Heartbeat CPU 0 instructions: 760000003 cycles: 647034499 heartbeat IPC: 1.05791 cumulative IPC: 1.07626 (Simulation time: 0 hr 20 min 8 sec) 
Heartbeat CPU 0 instructions: 770000000 cycles: 656435273 heartbeat IPC: 1.06374 cumulative IPC: 1.07607 (Simulation time: 0 hr 20 min 26 sec) 
Heartbeat CPU 0 instructions: 780000000 cycles: 665863275 heartbeat IPC: 1.06067 cumulative IPC: 1.07584 (Simulation time: 0 hr 20 min 44 sec) 
Heartbeat CPU 0 instructions: 790000002 cycles: 675438958 heartbeat IPC: 1.04431 cumulative IPC: 1.07537 (Simulation time: 0 hr 21 min 2 sec) 
Heartbeat CPU 0 instructions: 800000000 cycles: 683775015 heartbeat IPC: 1.19961 cumulative IPC: 1.07696 (Simulation time: 0 hr 21 min 18 sec) 
Heartbeat CPU 0 instructions: 810000000 cycles: 693333890 heartbeat IPC: 1.04615 cumulative IPC: 1.07652 (Simulation time: 0 hr 21 min 34 sec) 
Heartbeat CPU 0 instructions: 820000002 cycles: 701357654 heartbeat IPC: 1.2463 cumulative IPC: 1.07856 (Simulation time: 0 hr 21 min 49 sec) 
Heartbeat CPU 0 instructions: 830000002 cycles: 710607939 heartbeat IPC: 1.08105 cumulative IPC: 1.07859 (Simulation time: 0 hr 22 min 6 sec) 
Heartbeat CPU 0 instructions: 840000003 cycles: 719123216 heartbeat IPC: 1.17436 cumulative IPC: 1.07978 (Simulation time: 0 hr 22 min 21 sec) 
Heartbeat CPU 0 instructions: 850000001 cycles: 728320488 heartbeat IPC: 1.08728 cumulative IPC: 1.07988 (Simulation time: 0 hr 22 min 34 sec) 
Heartbeat CPU 0 instructions: 860000000 cycles: 738116343 heartbeat IPC: 1.02084 cumulative IPC: 1.07906 (Simulation time: 0 hr 22 min 49 sec) 
Heartbeat CPU 0 instructions: 870000000 cycles: 747793403 heartbeat IPC: 1.03337 cumulative IPC: 1.07844 (Simulation time: 0 hr 23 min 0 sec) 
Heartbeat CPU 0 instructions: 880000000 cycles: 757604031 heartbeat IPC: 1.0193 cumulative IPC: 1.07764 (Simulation time: 0 hr 23 min 12 sec) 
Heartbeat CPU 0 instructions: 890000001 cycles: 767525669 heartbeat IPC: 1.0079 cumulative IPC: 1.07669 (Simulation time: 0 hr 23 min 24 sec) 
Heartbeat CPU 0 instructions: 900000001 cycles: 775551075 heartbeat IPC: 1.24604 cumulative IPC: 1.07853 (Simulation time: 0 hr 23 min 38 sec) 
Heartbeat CPU 0 instructions: 910000000 cycles: 785032324 heartbeat IPC: 1.05471 cumulative IPC: 1.07823 (Simulation time: 0 hr 23 min 55 sec) 
Heartbeat CPU 0 instructions: 920000002 cycles: 794819407 heartbeat IPC: 1.02176 cumulative IPC: 1.0775 (Simulation time: 0 hr 24 min 13 sec) 
Heartbeat CPU 0 instructions: 930000001 cycles: 804022924 heartbeat IPC: 1.08654 cumulative IPC: 1.07761 (Simulation time: 0 hr 24 min 31 sec) 
Heartbeat CPU 0 instructions: 940000003 cycles: 813193143 heartbeat IPC: 1.09049 cumulative IPC: 1.07776 (Simulation time: 0 hr 24 min 49 sec) 
Heartbeat CPU 0 instructions: 950000003 cycles: 822414443 heartbeat IPC: 1.08445 cumulative IPC: 1.07784 (Simulation time: 0 hr 25 min 7 sec) 
Heartbeat CPU 0 instructions: 960000002 cycles: 831624068 heartbeat IPC: 1.08582 cumulative IPC: 1.07793 (Simulation time: 0 hr 25 min 26 sec) 
Heartbeat CPU 0 instructions: 970000001 cycles: 840888734 heartbeat IPC: 1.07937 cumulative IPC: 1.07795 (Simulation time: 0 hr 25 min 44 sec) 
Heartbeat CPU 0 instructions: 980000000 cycles: 850352467 heartbeat IPC: 1.05667 cumulative IPC: 1.0777 (Simulation time: 0 hr 26 min 1 sec) 
Heartbeat CPU 0 instructions: 990000000 cycles: 858470704 heartbeat IPC: 1.23179 cumulative IPC: 1.07922 (Simulation time: 0 hr 26 min 16 sec) 
Heartbeat CPU 0 instructions: 1000000001 cycles: 868428876 heartbeat IPC: 1.0042 cumulative IPC: 1.07832 (Simulation time: 0 hr 26 min 32 sec) 
Heartbeat CPU 0 instructions: 1010000000 cycles: 876225000 heartbeat IPC: 1.28269 cumulative IPC: 1.08021 (Simulation time: 0 hr 26 min 48 sec) 
Heartbeat CPU 0 instructions: 1020000003 cycles: 887206356 heartbeat IPC: 0.910635 cumulative IPC: 1.07803 (Simulation time: 0 hr 27 min 5 sec) 
Heartbeat CPU 0 instructions: 1030000001 cycles: 896216107 heartbeat IPC: 1.10991 cumulative IPC: 1.07836 (Simulation time: 0 hr 27 min 19 sec) 
Heartbeat CPU 0 instructions: 1040000000 cycles: 904697971 heartbeat IPC: 1.17899 cumulative IPC: 1.07934 (Simulation time: 0 hr 27 min 32 sec) 
Heartbeat CPU 0 instructions: 1050000001 cycles: 915554759 heartbeat IPC: 0.921083 cumulative IPC: 1.0774 (Simulation time: 0 hr 27 min 45 sec) 
Heartbeat CPU 0 instructions: 1060000002 cycles: 924527910 heartbeat IPC: 1.11444 cumulative IPC: 1.07777 (Simulation time: 0 hr 27 min 56 sec) 
Heartbeat CPU 0 instructions: 1070000000 cycles: 934793759 heartbeat IPC: 0.974103 cumulative IPC: 1.07659 (Simulation time: 0 hr 28 min 9 sec) 
Heartbeat CPU 0 instructions: 1080000001 cycles: 943139923 heartbeat IPC: 1.19816 cumulative IPC: 1.0777 (Simulation time: 0 hr 28 min 22 sec) 
Heartbeat CPU 0 instructions: 1090000000 cycles: 951685686 heartbeat IPC: 1.17017 cumulative IPC: 1.07856 (Simulation time: 0 hr 28 min 37 sec) 
Heartbeat CPU 0 instructions: 1100000000 cycles: 961951538 heartbeat IPC: 0.974103 cumulative IPC: 1.07741 (Simulation time: 0 hr 28 min 56 sec) 
Finished CPU 0 instructions: 1000000003 cycles: 928152718 cumulative IPC: 1.07741 (Simulation time: 0 hr 28 min 56 sec) 

ChampSim completed all CPUs

Region of Interest Statistics

CPU 0 cumulative IPC: 1.07741 instructions: 1000000003 cycles: 928152718
L1D TOTAL     ACCESS:  202414415  HIT:  185866429  MISS:   16547986
L1D LOAD      ACCESS:  150253035  HIT:  139344084  MISS:   10908951
L1D RFO       ACCESS:   52161380  HIT:   46522345  MISS:    5639035
L1D PREFETCH  ACCESS:          0  HIT:          0  MISS:          0
L1D WRITEBACK ACCESS:          0  HIT:          0  MISS:          0
L1D PREFETCH  REQUESTED:          0  ISSUED:          0  USEFUL:          0  USELESS:          0
L1D AVERAGE MISS LATENCY: 81.504 cycles
L1I TOTAL     ACCESS:  188366654  HIT:  187899596  MISS:     467058
L1I LOAD      ACCESS:  188366654  HIT:  187899596  MISS:     467058
L1I RFO       ACCESS:          0  HIT:          0  MISS:          0
L1I PREFETCH  ACCESS:          0  HIT:          0  MISS:          0
L1I WRITEBACK ACCESS:          0  HIT:          0  MISS:          0
L1I PREFETCH  REQUESTED:          0  ISSUED:          0  USEFUL:          0  USELESS:          0
L1I AVERAGE MISS LATENCY: 70.3387 cycles
L2C TOTAL     ACCESS:   24151335  HIT:   16360085  MISS:    7791250
L2C LOAD      ACCESS:   11374967  HIT:    6299051  MISS:    5075916
L2C RFO       ACCESS:    5638157  HIT:    2927030  MISS:    2711127
L2C PREFETCH  ACCESS:          0  HIT:          0  MISS:          0
L2C WRITEBACK ACCESS:    7138211  HIT:    7134004  MISS:       4207
L2C PREFETCH  REQUESTED:          0  ISSUED:          0  USEFUL:          0  USELESS:          0
L2C AVERAGE MISS LATENCY: 150.552 cycles
LLC TOTAL     ACCESS:   11511018  HIT:    5975666  MISS:    5535352
LLC LOAD      ACCESS:    5075907  HIT:    2473104  MISS:    2602803
LLC RFO       ACCESS:    2711054  HIT:    1243535  MISS:    1467519
LLC PREFETCH  ACCESS:          0  HIT:          0  MISS:          0
LLC WRITEBACK ACCESS:    3724057  HIT:    2259027  MISS:    1465030
LLC PREFETCH  REQUESTED:          0  ISSUED:          0  USEFUL:          0  USELESS:          0
LLC AVERAGE MISS LATENCY: 154.861 cycles
Major fault: 0 Minor fault: 31749
==============================
Perceptron RRIP Stats:
   Num Updates:          333233
   Num Primary Trains:   10645
   Num Secondary Trains: 11113
==============================
primary_perceptron #0: 5 -1 -5 1 1 7 3 -5 -5 3 -1 1 1 3 1 -5 
secondary_perceptron #0: 7 -5 -7 3 1 9 7 -5 -5 5 -3 1 1 1 -3 -3 -1 5 3 1 -3 


DRAM Statistics
 CHANNEL 0
 RQ ROW_BUFFER_HIT:    1356182  ROW_BUFFER_MISS:    2714051
 DBUS_CONGESTED:    2259159
 WQ ROW_BUFFER_HIT:    1121380  ROW_BUFFER_MISS:     890875  FULL:     429119

 AVG_CONGESTED_CYCLE: 6

CPU 0 Branch Prediction Accuracy: 97.4355% MPKI: 4.07377 Average ROB Occupancy at Mispredict: 48.2083

Branch types
NOT_BRANCH: 841147627 84.1148%
BRANCH_DIRECT_JUMP: 2905141 0.290514%
BRANCH_INDIRECT: 40681 0.0040681%
BRANCH_CONDITIONAL: 149211941 14.9212%
BRANCH_DIRECT_CALL: 3347126 0.334713%
BRANCH_INDIRECT_CALL: 0 0%
BRANCH_RETURN: 3347125 0.334712%
BRANCH_OTHER: 0 0%

