
*** ChampSim Multicore Out-of-Order Simulator ***

Warmup Instructions: 100000000
Simulation Instructions: 1000000000
Number of CPUs: 1
LLC sets: 2048
LLC ways: 16
Off-chip DRAM Size: 4096 MB Channels: 1 Width: 64-bit Data Rate: 3200 MT/s

CPU 0 runs /scratch/user/kevin.weston/dpc3-traces/628.champsimtrace.xz
CPU 0 Bimodal branch predictor
Initialize SRRIP state
Heartbeat CPU 0 instructions: 10000003 cycles: 3401679 heartbeat IPC: 2.93973 cumulative IPC: 2.93973 (Simulation time: 0 hr 0 min 17 sec) 
Heartbeat CPU 0 instructions: 20000001 cycles: 6803450 heartbeat IPC: 2.93964 cumulative IPC: 2.93969 (Simulation time: 0 hr 0 min 34 sec) 
Heartbeat CPU 0 instructions: 30000003 cycles: 10203752 heartbeat IPC: 2.94092 cumulative IPC: 2.9401 (Simulation time: 0 hr 0 min 52 sec) 
Heartbeat CPU 0 instructions: 40000001 cycles: 13601293 heartbeat IPC: 2.9433 cumulative IPC: 2.9409 (Simulation time: 0 hr 1 min 9 sec) 
Heartbeat CPU 0 instructions: 50000002 cycles: 16991506 heartbeat IPC: 2.94967 cumulative IPC: 2.94265 (Simulation time: 0 hr 1 min 26 sec) 
Heartbeat CPU 0 instructions: 60000000 cycles: 20379904 heartbeat IPC: 2.95125 cumulative IPC: 2.94408 (Simulation time: 0 hr 1 min 43 sec) 
Heartbeat CPU 0 instructions: 70000002 cycles: 23754016 heartbeat IPC: 2.96374 cumulative IPC: 2.94687 (Simulation time: 0 hr 2 min 0 sec) 
Heartbeat CPU 0 instructions: 80000000 cycles: 27006332 heartbeat IPC: 3.07473 cumulative IPC: 2.96227 (Simulation time: 0 hr 2 min 15 sec) 
Heartbeat CPU 0 instructions: 90000003 cycles: 30398019 heartbeat IPC: 2.94839 cumulative IPC: 2.96072 (Simulation time: 0 hr 2 min 30 sec) 
Heartbeat CPU 0 instructions: 100000003 cycles: 33798026 heartbeat IPC: 2.94117 cumulative IPC: 2.95875 (Simulation time: 0 hr 2 min 47 sec) 

Warmup complete CPU 0 instructions: 100000003 cycles: 33798026 (Simulation time: 0 hr 2 min 47 sec) 

Heartbeat CPU 0 instructions: 110000000 cycles: 42824238 heartbeat IPC: 1.10788 cumulative IPC: 1.10788 (Simulation time: 0 hr 3 min 1 sec) 
Heartbeat CPU 0 instructions: 120000000 cycles: 51926582 heartbeat IPC: 1.09862 cumulative IPC: 1.10323 (Simulation time: 0 hr 3 min 14 sec) 
Heartbeat CPU 0 instructions: 130000002 cycles: 60454218 heartbeat IPC: 1.17266 cumulative IPC: 1.12544 (Simulation time: 0 hr 3 min 26 sec) 
Heartbeat CPU 0 instructions: 140000002 cycles: 69620887 heartbeat IPC: 1.09091 cumulative IPC: 1.11661 (Simulation time: 0 hr 3 min 37 sec) 
Heartbeat CPU 0 instructions: 150000000 cycles: 78420720 heartbeat IPC: 1.13638 cumulative IPC: 1.12051 (Simulation time: 0 hr 3 min 46 sec) 
Heartbeat CPU 0 instructions: 160000000 cycles: 87740346 heartbeat IPC: 1.073 cumulative IPC: 1.1123 (Simulation time: 0 hr 3 min 56 sec) 
Heartbeat CPU 0 instructions: 170000002 cycles: 95714814 heartbeat IPC: 1.254 cumulative IPC: 1.13055 (Simulation time: 0 hr 4 min 9 sec) 
Heartbeat CPU 0 instructions: 180000003 cycles: 104916086 heartbeat IPC: 1.08681 cumulative IPC: 1.12489 (Simulation time: 0 hr 4 min 25 sec) 
Heartbeat CPU 0 instructions: 190000003 cycles: 114188733 heartbeat IPC: 1.07844 cumulative IPC: 1.11953 (Simulation time: 0 hr 4 min 42 sec) 
Heartbeat CPU 0 instructions: 200000001 cycles: 123298839 heartbeat IPC: 1.09768 cumulative IPC: 1.11731 (Simulation time: 0 hr 4 min 58 sec) 
Heartbeat CPU 0 instructions: 210000000 cycles: 132416791 heartbeat IPC: 1.09674 cumulative IPC: 1.11541 (Simulation time: 0 hr 5 min 15 sec) 
Heartbeat CPU 0 instructions: 220000000 cycles: 141522614 heartbeat IPC: 1.0982 cumulative IPC: 1.11395 (Simulation time: 0 hr 5 min 32 sec) 
Heartbeat CPU 0 instructions: 230000000 cycles: 150601526 heartbeat IPC: 1.10145 cumulative IPC: 1.11298 (Simulation time: 0 hr 5 min 48 sec) 
Heartbeat CPU 0 instructions: 240000002 cycles: 159640370 heartbeat IPC: 1.10634 cumulative IPC: 1.1125 (Simulation time: 0 hr 6 min 5 sec) 
Heartbeat CPU 0 instructions: 250000002 cycles: 168460372 heartbeat IPC: 1.13379 cumulative IPC: 1.1139 (Simulation time: 0 hr 6 min 21 sec) 
Heartbeat CPU 0 instructions: 260000000 cycles: 176798507 heartbeat IPC: 1.19931 cumulative IPC: 1.11888 (Simulation time: 0 hr 6 min 35 sec) 
Heartbeat CPU 0 instructions: 270000000 cycles: 185045829 heartbeat IPC: 1.21251 cumulative IPC: 1.12398 (Simulation time: 0 hr 6 min 49 sec) 
Heartbeat CPU 0 instructions: 280000001 cycles: 193096974 heartbeat IPC: 1.24206 cumulative IPC: 1.12995 (Simulation time: 0 hr 7 min 4 sec) 
Heartbeat CPU 0 instructions: 290000002 cycles: 202334500 heartbeat IPC: 1.08254 cumulative IPC: 1.12735 (Simulation time: 0 hr 7 min 18 sec) 
Heartbeat CPU 0 instructions: 300000001 cycles: 211607901 heartbeat IPC: 1.07835 cumulative IPC: 1.1248 (Simulation time: 0 hr 7 min 31 sec) 
Heartbeat CPU 0 instructions: 310000000 cycles: 220489159 heartbeat IPC: 1.12597 cumulative IPC: 1.12485 (Simulation time: 0 hr 7 min 44 sec) 
Heartbeat CPU 0 instructions: 320000003 cycles: 229887111 heartbeat IPC: 1.06406 cumulative IPC: 1.12194 (Simulation time: 0 hr 7 min 54 sec) 
Heartbeat CPU 0 instructions: 330000000 cycles: 239512222 heartbeat IPC: 1.03895 cumulative IPC: 1.11806 (Simulation time: 0 hr 8 min 5 sec) 
Heartbeat CPU 0 instructions: 340000001 cycles: 249187418 heartbeat IPC: 1.03357 cumulative IPC: 1.11426 (Simulation time: 0 hr 8 min 15 sec) 
Heartbeat CPU 0 instructions: 350000000 cycles: 257279995 heartbeat IPC: 1.2357 cumulative IPC: 1.11866 (Simulation time: 0 hr 8 min 28 sec) 
Heartbeat CPU 0 instructions: 360000003 cycles: 266361071 heartbeat IPC: 1.10119 cumulative IPC: 1.11798 (Simulation time: 0 hr 8 min 43 sec) 
Heartbeat CPU 0 instructions: 370000001 cycles: 275783254 heartbeat IPC: 1.06132 cumulative IPC: 1.11577 (Simulation time: 0 hr 9 min 0 sec) 
Heartbeat CPU 0 instructions: 380000002 cycles: 285032479 heartbeat IPC: 1.08117 cumulative IPC: 1.1145 (Simulation time: 0 hr 9 min 17 sec) 
Heartbeat CPU 0 instructions: 390000000 cycles: 294313090 heartbeat IPC: 1.07752 cumulative IPC: 1.11318 (Simulation time: 0 hr 9 min 34 sec) 
Heartbeat CPU 0 instructions: 400000002 cycles: 303549601 heartbeat IPC: 1.08266 cumulative IPC: 1.11213 (Simulation time: 0 hr 9 min 51 sec) 
Heartbeat CPU 0 instructions: 410000002 cycles: 312769899 heartbeat IPC: 1.08456 cumulative IPC: 1.11122 (Simulation time: 0 hr 10 min 8 sec) 
Heartbeat CPU 0 instructions: 420000002 cycles: 321919671 heartbeat IPC: 1.09292 cumulative IPC: 1.11064 (Simulation time: 0 hr 10 min 25 sec) 
Heartbeat CPU 0 instructions: 430000002 cycles: 330911563 heartbeat IPC: 1.11211 cumulative IPC: 1.11069 (Simulation time: 0 hr 10 min 41 sec) 
Heartbeat CPU 0 instructions: 440000000 cycles: 338635862 heartbeat IPC: 1.29462 cumulative IPC: 1.11535 (Simulation time: 0 hr 10 min 55 sec) 
Heartbeat CPU 0 instructions: 450000002 cycles: 347345187 heartbeat IPC: 1.14819 cumulative IPC: 1.11626 (Simulation time: 0 hr 11 min 10 sec) 
Heartbeat CPU 0 instructions: 460000002 cycles: 354885519 heartbeat IPC: 1.3262 cumulative IPC: 1.12119 (Simulation time: 0 hr 11 min 24 sec) 
Heartbeat CPU 0 instructions: 470000000 cycles: 364353353 heartbeat IPC: 1.05621 cumulative IPC: 1.11933 (Simulation time: 0 hr 11 min 39 sec) 
Heartbeat CPU 0 instructions: 480000001 cycles: 373619639 heartbeat IPC: 1.07918 cumulative IPC: 1.11823 (Simulation time: 0 hr 11 min 53 sec) 
Heartbeat CPU 0 instructions: 490000001 cycles: 381908919 heartbeat IPC: 1.20638 cumulative IPC: 1.12033 (Simulation time: 0 hr 12 min 4 sec) 
Heartbeat CPU 0 instructions: 500000001 cycles: 391579247 heartbeat IPC: 1.03409 cumulative IPC: 1.118 (Simulation time: 0 hr 12 min 16 sec) 
Heartbeat CPU 0 instructions: 510000000 cycles: 400573336 heartbeat IPC: 1.11184 cumulative IPC: 1.11785 (Simulation time: 0 hr 12 min 26 sec) 
Heartbeat CPU 0 instructions: 520000001 cycles: 410652344 heartbeat IPC: 0.992161 cumulative IPC: 1.11449 (Simulation time: 0 hr 12 min 38 sec) 
Heartbeat CPU 0 instructions: 530000002 cycles: 418862407 heartbeat IPC: 1.21802 cumulative IPC: 1.1167 (Simulation time: 0 hr 12 min 49 sec) 
Heartbeat CPU 0 instructions: 540000002 cycles: 427400863 heartbeat IPC: 1.17117 cumulative IPC: 1.11788 (Simulation time: 0 hr 13 min 4 sec) 
Heartbeat CPU 0 instructions: 550000000 cycles: 436701315 heartbeat IPC: 1.07522 cumulative IPC: 1.11689 (Simulation time: 0 hr 13 min 21 sec) 
Heartbeat CPU 0 instructions: 560000000 cycles: 445787029 heartbeat IPC: 1.10063 cumulative IPC: 1.11653 (Simulation time: 0 hr 13 min 38 sec) 
Heartbeat CPU 0 instructions: 570000001 cycles: 454860249 heartbeat IPC: 1.10214 cumulative IPC: 1.11622 (Simulation time: 0 hr 13 min 56 sec) 
Heartbeat CPU 0 instructions: 580000001 cycles: 463912631 heartbeat IPC: 1.10468 cumulative IPC: 1.11598 (Simulation time: 0 hr 14 min 13 sec) 
Heartbeat CPU 0 instructions: 590000003 cycles: 472950783 heartbeat IPC: 1.10642 cumulative IPC: 1.11578 (Simulation time: 0 hr 14 min 30 sec) 
Heartbeat CPU 0 instructions: 600000001 cycles: 481957718 heartbeat IPC: 1.11026 cumulative IPC: 1.11567 (Simulation time: 0 hr 14 min 46 sec) 
Heartbeat CPU 0 instructions: 610000001 cycles: 491105977 heartbeat IPC: 1.0931 cumulative IPC: 1.11522 (Simulation time: 0 hr 15 min 3 sec) 
Heartbeat CPU 0 instructions: 620000001 cycles: 498675913 heartbeat IPC: 1.32102 cumulative IPC: 1.11857 (Simulation time: 0 hr 15 min 17 sec) 
Heartbeat CPU 0 instructions: 630000003 cycles: 507888284 heartbeat IPC: 1.0855 cumulative IPC: 1.11793 (Simulation time: 0 hr 15 min 33 sec) 
Heartbeat CPU 0 instructions: 640000000 cycles: 516103432 heartbeat IPC: 1.21726 cumulative IPC: 1.11962 (Simulation time: 0 hr 15 min 46 sec) 
Heartbeat CPU 0 instructions: 650000001 cycles: 525240870 heartbeat IPC: 1.0944 cumulative IPC: 1.11915 (Simulation time: 0 hr 16 min 2 sec) 
Heartbeat CPU 0 instructions: 660000000 cycles: 534414423 heartbeat IPC: 1.09009 cumulative IPC: 1.11862 (Simulation time: 0 hr 16 min 17 sec) 
Heartbeat CPU 0 instructions: 670000002 cycles: 542775799 heartbeat IPC: 1.19598 cumulative IPC: 1.11989 (Simulation time: 0 hr 16 min 28 sec) 
Heartbeat CPU 0 instructions: 680000003 cycles: 552891312 heartbeat IPC: 0.988581 cumulative IPC: 1.11733 (Simulation time: 0 hr 16 min 41 sec) 
Heartbeat CPU 0 instructions: 690000000 cycles: 561204238 heartbeat IPC: 1.20295 cumulative IPC: 1.11868 (Simulation time: 0 hr 16 min 50 sec) 
Heartbeat CPU 0 instructions: 700000000 cycles: 571352860 heartbeat IPC: 0.985355 cumulative IPC: 1.11617 (Simulation time: 0 hr 17 min 2 sec) 
Heartbeat CPU 0 instructions: 710000002 cycles: 580904329 heartbeat IPC: 1.04696 cumulative IPC: 1.11496 (Simulation time: 0 hr 17 min 14 sec) 
Heartbeat CPU 0 instructions: 720000001 cycles: 588635007 heartbeat IPC: 1.29355 cumulative IPC: 1.11745 (Simulation time: 0 hr 17 min 27 sec) 
Heartbeat CPU 0 instructions: 730000001 cycles: 598373182 heartbeat IPC: 1.02689 cumulative IPC: 1.11588 (Simulation time: 0 hr 17 min 44 sec) 
Heartbeat CPU 0 instructions: 740000002 cycles: 607444757 heartbeat IPC: 1.10234 cumulative IPC: 1.11567 (Simulation time: 0 hr 18 min 2 sec) 
Heartbeat CPU 0 instructions: 750000002 cycles: 616522394 heartbeat IPC: 1.10161 cumulative IPC: 1.11545 (Simulation time: 0 hr 18 min 19 sec) 
Heartbeat CPU 0 instructions: 760000003 cycles: 625584262 heartbeat IPC: 1.10353 cumulative IPC: 1.11527 (Simulation time: 0 hr 18 min 36 sec) 
Heartbeat CPU 0 instructions: 770000000 cycles: 634699028 heartbeat IPC: 1.09712 cumulative IPC: 1.11499 (Simulation time: 0 hr 18 min 53 sec) 
Heartbeat CPU 0 instructions: 780000000 cycles: 643879698 heartbeat IPC: 1.08925 cumulative IPC: 1.1146 (Simulation time: 0 hr 19 min 10 sec) 
Heartbeat CPU 0 instructions: 790000002 cycles: 653135799 heartbeat IPC: 1.08037 cumulative IPC: 1.11409 (Simulation time: 0 hr 19 min 27 sec) 
Heartbeat CPU 0 instructions: 800000000 cycles: 661390443 heartbeat IPC: 1.21144 cumulative IPC: 1.11537 (Simulation time: 0 hr 19 min 42 sec) 
Heartbeat CPU 0 instructions: 810000000 cycles: 670362403 heartbeat IPC: 1.11458 cumulative IPC: 1.11536 (Simulation time: 0 hr 19 min 57 sec) 
Heartbeat CPU 0 instructions: 820000002 cycles: 678205527 heartbeat IPC: 1.275 cumulative IPC: 1.11731 (Simulation time: 0 hr 20 min 12 sec) 
Heartbeat CPU 0 instructions: 830000002 cycles: 686449376 heartbeat IPC: 1.21303 cumulative IPC: 1.11851 (Simulation time: 0 hr 20 min 27 sec) 
Heartbeat CPU 0 instructions: 840000003 cycles: 695078033 heartbeat IPC: 1.15893 cumulative IPC: 1.11904 (Simulation time: 0 hr 20 min 41 sec) 
Heartbeat CPU 0 instructions: 850000001 cycles: 704316621 heartbeat IPC: 1.08242 cumulative IPC: 1.11854 (Simulation time: 0 hr 20 min 54 sec) 
Heartbeat CPU 0 instructions: 860000000 cycles: 713301026 heartbeat IPC: 1.11304 cumulative IPC: 1.11846 (Simulation time: 0 hr 21 min 7 sec) 
Heartbeat CPU 0 instructions: 870000000 cycles: 722710451 heartbeat IPC: 1.06276 cumulative IPC: 1.1177 (Simulation time: 0 hr 21 min 18 sec) 
Heartbeat CPU 0 instructions: 880000000 cycles: 732564499 heartbeat IPC: 1.01481 cumulative IPC: 1.11625 (Simulation time: 0 hr 21 min 29 sec) 
Heartbeat CPU 0 instructions: 890000001 cycles: 742482595 heartbeat IPC: 1.00826 cumulative IPC: 1.11474 (Simulation time: 0 hr 21 min 41 sec) 
Heartbeat CPU 0 instructions: 900000001 cycles: 750371090 heartbeat IPC: 1.26767 cumulative IPC: 1.11642 (Simulation time: 0 hr 21 min 53 sec) 
Heartbeat CPU 0 instructions: 910000000 cycles: 759312386 heartbeat IPC: 1.11841 cumulative IPC: 1.11645 (Simulation time: 0 hr 22 min 9 sec) 
Heartbeat CPU 0 instructions: 920000002 cycles: 768460908 heartbeat IPC: 1.09307 cumulative IPC: 1.11616 (Simulation time: 0 hr 22 min 27 sec) 
Heartbeat CPU 0 instructions: 930000001 cycles: 777463139 heartbeat IPC: 1.11084 cumulative IPC: 1.11609 (Simulation time: 0 hr 22 min 44 sec) 
Heartbeat CPU 0 instructions: 940000003 cycles: 786421458 heartbeat IPC: 1.11628 cumulative IPC: 1.1161 (Simulation time: 0 hr 23 min 1 sec) 
Heartbeat CPU 0 instructions: 950000003 cycles: 795313107 heartbeat IPC: 1.12465 cumulative IPC: 1.1162 (Simulation time: 0 hr 23 min 18 sec) 
Heartbeat CPU 0 instructions: 960000002 cycles: 804232245 heartbeat IPC: 1.12118 cumulative IPC: 1.11625 (Simulation time: 0 hr 23 min 35 sec) 
Heartbeat CPU 0 instructions: 970000001 cycles: 813319759 heartbeat IPC: 1.10041 cumulative IPC: 1.11607 (Simulation time: 0 hr 23 min 53 sec) 
Heartbeat CPU 0 instructions: 980000000 cycles: 822540261 heartbeat IPC: 1.08454 cumulative IPC: 1.1157 (Simulation time: 0 hr 24 min 9 sec) 
Heartbeat CPU 0 instructions: 990000000 cycles: 830120031 heartbeat IPC: 1.3193 cumulative IPC: 1.11764 (Simulation time: 0 hr 24 min 23 sec) 
Heartbeat CPU 0 instructions: 1000000001 cycles: 839265656 heartbeat IPC: 1.09342 cumulative IPC: 1.11736 (Simulation time: 0 hr 24 min 38 sec) 
Heartbeat CPU 0 instructions: 1010000000 cycles: 846857867 heartbeat IPC: 1.31714 cumulative IPC: 1.11923 (Simulation time: 0 hr 24 min 52 sec) 
Heartbeat CPU 0 instructions: 1020000003 cycles: 856336386 heartbeat IPC: 1.05502 cumulative IPC: 1.11849 (Simulation time: 0 hr 25 min 7 sec) 
Heartbeat CPU 0 instructions: 1030000001 cycles: 865590350 heartbeat IPC: 1.08062 cumulative IPC: 1.11807 (Simulation time: 0 hr 25 min 21 sec) 
Heartbeat CPU 0 instructions: 1040000000 cycles: 874080609 heartbeat IPC: 1.17782 cumulative IPC: 1.11867 (Simulation time: 0 hr 25 min 33 sec) 
Heartbeat CPU 0 instructions: 1050000001 cycles: 884021718 heartbeat IPC: 1.00592 cumulative IPC: 1.11735 (Simulation time: 0 hr 25 min 45 sec) 
Heartbeat CPU 0 instructions: 1060000002 cycles: 892964430 heartbeat IPC: 1.11823 cumulative IPC: 1.11736 (Simulation time: 0 hr 25 min 55 sec) 
Heartbeat CPU 0 instructions: 1070000000 cycles: 903704158 heartbeat IPC: 0.931122 cumulative IPC: 1.11506 (Simulation time: 0 hr 26 min 8 sec) 
Heartbeat CPU 0 instructions: 1080000001 cycles: 912009100 heartbeat IPC: 1.2041 cumulative IPC: 1.1159 (Simulation time: 0 hr 26 min 19 sec) 
Heartbeat CPU 0 instructions: 1090000000 cycles: 920124725 heartbeat IPC: 1.23219 cumulative IPC: 1.11697 (Simulation time: 0 hr 26 min 34 sec) 
Heartbeat CPU 0 instructions: 1100000000 cycles: 929618186 heartbeat IPC: 1.05336 cumulative IPC: 1.1163 (Simulation time: 0 hr 26 min 51 sec) 
Finished CPU 0 instructions: 1000000003 cycles: 895820163 cumulative IPC: 1.1163 (Simulation time: 0 hr 26 min 51 sec) 

ChampSim completed all CPUs

Region of Interest Statistics

CPU 0 cumulative IPC: 1.1163 instructions: 1000000003 cycles: 895820163
L1D TOTAL     ACCESS:  202730408  HIT:  186182324  MISS:   16548084
L1D LOAD      ACCESS:  150491807  HIT:  139582950  MISS:   10908857
L1D RFO       ACCESS:   52238601  HIT:   46599374  MISS:    5639227
L1D PREFETCH  ACCESS:          0  HIT:          0  MISS:          0
L1D WRITEBACK ACCESS:          0  HIT:          0  MISS:          0
L1D PREFETCH  REQUESTED:          0  ISSUED:          0  USEFUL:          0  USELESS:          0
L1D AVERAGE MISS LATENCY: 74.3535 cycles
L1I TOTAL     ACCESS:  188306254  HIT:  187839200  MISS:     467054
L1I LOAD      ACCESS:  188306254  HIT:  187839200  MISS:     467054
L1I RFO       ACCESS:          0  HIT:          0  MISS:          0
L1I PREFETCH  ACCESS:          0  HIT:          0  MISS:          0
L1I WRITEBACK ACCESS:          0  HIT:          0  MISS:          0
L1I PREFETCH  REQUESTED:          0  ISSUED:          0  USEFUL:          0  USELESS:          0
L1I AVERAGE MISS LATENCY: 64.0067 cycles
L2C TOTAL     ACCESS:   24151768  HIT:   16336871  MISS:    7814897
L2C LOAD      ACCESS:   11374923  HIT:    6284570  MISS:    5090353
L2C RFO       ACCESS:    5638382  HIT:    2919074  MISS:    2719308
L2C PREFETCH  ACCESS:          0  HIT:          0  MISS:          0
L2C WRITEBACK ACCESS:    7138463  HIT:    7133227  MISS:       5236
L2C PREFETCH  REQUESTED:          0  ISSUED:          0  USEFUL:          0  USELESS:          0
L2C AVERAGE MISS LATENCY: 134.583 cycles
LLC TOTAL     ACCESS:   11538938  HIT:    8072941  MISS:    3465997
LLC LOAD      ACCESS:    5090291  HIT:    3026133  MISS:    2064158
LLC RFO       ACCESS:    2719253  HIT:    1365809  MISS:    1353444
LLC PREFETCH  ACCESS:          0  HIT:          0  MISS:          0
LLC WRITEBACK ACCESS:    3729394  HIT:    3680999  MISS:      48395
LLC PREFETCH  REQUESTED:          0  ISSUED:          0  USEFUL:          0  USELESS:          0
LLC AVERAGE MISS LATENCY: 212.071 cycles
Major fault: 0 Minor fault: 31749

DRAM Statistics
 CHANNEL 0
 RQ ROW_BUFFER_HIT:    1214847  ROW_BUFFER_MISS:    2202414
 DBUS_CONGESTED:    1880472
 WQ ROW_BUFFER_HIT:     825925  ROW_BUFFER_MISS:     957623  FULL:       7929

 AVG_CONGESTED_CYCLE: 6

CPU 0 Branch Prediction Accuracy: 97.4355% MPKI: 4.07377 Average ROB Occupancy at Mispredict: 47.1301

Branch types
NOT_BRANCH: 841147627 84.1148%
BRANCH_DIRECT_JUMP: 2905141 0.290514%
BRANCH_INDIRECT: 40681 0.0040681%
BRANCH_CONDITIONAL: 149211941 14.9212%
BRANCH_DIRECT_CALL: 3347126 0.334713%
BRANCH_INDIRECT_CALL: 0 0%
BRANCH_RETURN: 3347125 0.334712%
BRANCH_OTHER: 0 0%

