
*** ChampSim Multicore Out-of-Order Simulator ***

Warmup Instructions: 100000000
Simulation Instructions: 1000000000
Number of CPUs: 1
LLC sets: 2048
LLC ways: 16
Off-chip DRAM Size: 4096 MB Channels: 1 Width: 64-bit Data Rate: 3200 MT/s

CPU 0 runs /scratch/user/kevin.weston/dpc3-traces/631.champsimtrace.xz
CPU 0 Bimodal branch predictor
Per-line RRPV Initialized
PRRIP State Initialized
Assign SAMPLER_SET[0]: 454  LLC: 2048
SAMPLER_SET[0]: 454
Assign SAMPLER_SET[1]: 1662  LLC: 2048
SAMPLER_SET[1]: 1662
Assign SAMPLER_SET[2]: 1921  LLC: 2048
SAMPLER_SET[2]: 1921
Assign SAMPLER_SET[3]: 1131  LLC: 2048
SAMPLER_SET[3]: 1131
Assign SAMPLER_SET[4]: 331  LLC: 2048
SAMPLER_SET[4]: 331
Assign SAMPLER_SET[5]: 1531  LLC: 2048
SAMPLER_SET[5]: 1531
Assign SAMPLER_SET[6]: 482  LLC: 2048
SAMPLER_SET[6]: 482
Assign SAMPLER_SET[7]: 1275  LLC: 2048
SAMPLER_SET[7]: 1275
Assign SAMPLER_SET[8]: 1876  LLC: 2048
SAMPLER_SET[8]: 1876
Assign SAMPLER_SET[9]: 2038  LLC: 2048
SAMPLER_SET[9]: 2038
Assign SAMPLER_SET[10]: 701  LLC: 2048
SAMPLER_SET[10]: 701
Assign SAMPLER_SET[11]: 479  LLC: 2048
SAMPLER_SET[11]: 479
Assign SAMPLER_SET[12]: 892  LLC: 2048
SAMPLER_SET[12]: 892
Assign SAMPLER_SET[13]: 1820  LLC: 2048
SAMPLER_SET[13]: 1820
Assign SAMPLER_SET[14]: 1505  LLC: 2048
SAMPLER_SET[14]: 1505
Assign SAMPLER_SET[15]: 1159  LLC: 2048
SAMPLER_SET[15]: 1159
Assign SAMPLER_SET[16]: 513  LLC: 2048
SAMPLER_SET[16]: 513
Assign SAMPLER_SET[17]: 703  LLC: 2048
SAMPLER_SET[17]: 703
Assign SAMPLER_SET[18]: 561  LLC: 2048
SAMPLER_SET[18]: 561
Assign SAMPLER_SET[19]: 990  LLC: 2048
SAMPLER_SET[19]: 990
Assign SAMPLER_SET[20]: 342  LLC: 2048
SAMPLER_SET[20]: 342
Assign SAMPLER_SET[21]: 882  LLC: 2048
SAMPLER_SET[21]: 882
Assign SAMPLER_SET[22]: 15  LLC: 2048
SAMPLER_SET[22]: 15
Assign SAMPLER_SET[23]: 71  LLC: 2048
SAMPLER_SET[23]: 71
Assign SAMPLER_SET[24]: 1127  LLC: 2048
SAMPLER_SET[24]: 1127
Assign SAMPLER_SET[25]: 1382  LLC: 2048
SAMPLER_SET[25]: 1382
Assign SAMPLER_SET[26]: 647  LLC: 2048
SAMPLER_SET[26]: 647
Assign SAMPLER_SET[27]: 857  LLC: 2048
SAMPLER_SET[27]: 857
Assign SAMPLER_SET[28]: 1450  LLC: 2048
SAMPLER_SET[28]: 1450
Assign SAMPLER_SET[29]: 1160  LLC: 2048
SAMPLER_SET[29]: 1160
Assign SAMPLER_SET[30]: 1852  LLC: 2048
SAMPLER_SET[30]: 1852
Assign SAMPLER_SET[31]: 1881  LLC: 2048
SAMPLER_SET[31]: 1881
Assign SAMPLER_SET[32]: 1770  LLC: 2048
SAMPLER_SET[32]: 1770
Assign SAMPLER_SET[33]: 1622  LLC: 2048
SAMPLER_SET[33]: 1622
Assign SAMPLER_SET[34]: 275  LLC: 2048
SAMPLER_SET[34]: 275
Assign SAMPLER_SET[35]: 635  LLC: 2048
SAMPLER_SET[35]: 635
Assign SAMPLER_SET[36]: 466  LLC: 2048
SAMPLER_SET[36]: 466
Assign SAMPLER_SET[37]: 1413  LLC: 2048
SAMPLER_SET[37]: 1413
Assign SAMPLER_SET[38]: 417  LLC: 2048
SAMPLER_SET[38]: 417
Assign SAMPLER_SET[39]: 472  LLC: 2048
SAMPLER_SET[39]: 472
Assign SAMPLER_SET[40]: 1340  LLC: 2048
SAMPLER_SET[40]: 1340
Assign SAMPLER_SET[41]: 852  LLC: 2048
SAMPLER_SET[41]: 852
Assign SAMPLER_SET[42]: 1365  LLC: 2048
SAMPLER_SET[42]: 1365
Assign SAMPLER_SET[43]: 47  LLC: 2048
SAMPLER_SET[43]: 47
Assign SAMPLER_SET[44]: 823  LLC: 2048
SAMPLER_SET[44]: 823
Assign SAMPLER_SET[45]: 686  LLC: 2048
SAMPLER_SET[45]: 686
Assign SAMPLER_SET[46]: 1637  LLC: 2048
SAMPLER_SET[46]: 1637
Assign SAMPLER_SET[47]: 1115  LLC: 2048
SAMPLER_SET[47]: 1115
Assign SAMPLER_SET[48]: 986  LLC: 2048
SAMPLER_SET[48]: 986
Assign SAMPLER_SET[49]: 258  LLC: 2048
SAMPLER_SET[49]: 258
Assign SAMPLER_SET[50]: 633  LLC: 2048
SAMPLER_SET[50]: 633
Assign SAMPLER_SET[51]: 920  LLC: 2048
SAMPLER_SET[51]: 920
Assign SAMPLER_SET[52]: 204  LLC: 2048
SAMPLER_SET[52]: 204
Assign SAMPLER_SET[53]: 227  LLC: 2048
SAMPLER_SET[53]: 227
Assign SAMPLER_SET[54]: 1818  LLC: 2048
SAMPLER_SET[54]: 1818
Assign SAMPLER_SET[55]: 886  LLC: 2048
SAMPLER_SET[55]: 886
Assign SAMPLER_SET[56]: 1422  LLC: 2048
SAMPLER_SET[56]: 1422
Assign SAMPLER_SET[57]: 607  LLC: 2048
SAMPLER_SET[57]: 607
Assign SAMPLER_SET[58]: 217  LLC: 2048
SAMPLER_SET[58]: 217
Assign SAMPLER_SET[59]: 1945  LLC: 2048
SAMPLER_SET[59]: 1945
Assign SAMPLER_SET[60]: 143  LLC: 2048
SAMPLER_SET[60]: 143
Assign SAMPLER_SET[61]: 1311  LLC: 2048
SAMPLER_SET[61]: 1311
Assign SAMPLER_SET[62]: 319  LLC: 2048
SAMPLER_SET[62]: 319
Assign SAMPLER_SET[63]: 1846  LLC: 2048
SAMPLER_SET[63]: 1846
Heartbeat CPU 0 instructions: 10000000 cycles: 3950840 heartbeat IPC: 2.53111 cumulative IPC: 2.53111 (Simulation time: 0 hr 0 min 24 sec) 
Heartbeat CPU 0 instructions: 20000000 cycles: 8026460 heartbeat IPC: 2.45361 cumulative IPC: 2.49176 (Simulation time: 0 hr 0 min 48 sec) 
Heartbeat CPU 0 instructions: 30000000 cycles: 11977393 heartbeat IPC: 2.53105 cumulative IPC: 2.50472 (Simulation time: 0 hr 1 min 12 sec) 
Heartbeat CPU 0 instructions: 40000001 cycles: 15930232 heartbeat IPC: 2.52983 cumulative IPC: 2.51095 (Simulation time: 0 hr 1 min 36 sec) 
Heartbeat CPU 0 instructions: 50000001 cycles: 19880857 heartbeat IPC: 2.53124 cumulative IPC: 2.51498 (Simulation time: 0 hr 2 min 0 sec) 
Heartbeat CPU 0 instructions: 60000001 cycles: 23739170 heartbeat IPC: 2.59181 cumulative IPC: 2.52747 (Simulation time: 0 hr 2 min 23 sec) 
Heartbeat CPU 0 instructions: 70000001 cycles: 27563170 heartbeat IPC: 2.61506 cumulative IPC: 2.53962 (Simulation time: 0 hr 2 min 47 sec) 
Heartbeat CPU 0 instructions: 80000002 cycles: 31430082 heartbeat IPC: 2.58604 cumulative IPC: 2.54533 (Simulation time: 0 hr 3 min 11 sec) 
Heartbeat CPU 0 instructions: 90000001 cycles: 35327740 heartbeat IPC: 2.56564 cumulative IPC: 2.54757 (Simulation time: 0 hr 3 min 35 sec) 
Heartbeat CPU 0 instructions: 100000001 cycles: 39260970 heartbeat IPC: 2.54244 cumulative IPC: 2.54706 (Simulation time: 0 hr 3 min 58 sec) 

Warmup complete CPU 0 instructions: 100000001 cycles: 39260970 (Simulation time: 0 hr 3 min 58 sec) 

Heartbeat CPU 0 instructions: 110000000 cycles: 49132794 heartbeat IPC: 1.01298 cumulative IPC: 1.01298 (Simulation time: 0 hr 4 min 15 sec) 
Heartbeat CPU 0 instructions: 120000002 cycles: 58850824 heartbeat IPC: 1.02902 cumulative IPC: 1.02094 (Simulation time: 0 hr 4 min 32 sec) 
Heartbeat CPU 0 instructions: 130000001 cycles: 68701560 heartbeat IPC: 1.01515 cumulative IPC: 1.019 (Simulation time: 0 hr 4 min 49 sec) 
Heartbeat CPU 0 instructions: 140000002 cycles: 78519958 heartbeat IPC: 1.0185 cumulative IPC: 1.01888 (Simulation time: 0 hr 5 min 6 sec) 
Heartbeat CPU 0 instructions: 150000002 cycles: 88296096 heartbeat IPC: 1.0229 cumulative IPC: 1.01968 (Simulation time: 0 hr 5 min 23 sec) 
Heartbeat CPU 0 instructions: 160000001 cycles: 98097391 heartbeat IPC: 1.02027 cumulative IPC: 1.01978 (Simulation time: 0 hr 5 min 40 sec) 
Heartbeat CPU 0 instructions: 170000001 cycles: 107963392 heartbeat IPC: 1.01358 cumulative IPC: 1.01889 (Simulation time: 0 hr 5 min 57 sec) 
Heartbeat CPU 0 instructions: 180000002 cycles: 117882966 heartbeat IPC: 1.00811 cumulative IPC: 1.01753 (Simulation time: 0 hr 6 min 14 sec) 
Heartbeat CPU 0 instructions: 190000003 cycles: 127839661 heartbeat IPC: 1.00435 cumulative IPC: 1.01605 (Simulation time: 0 hr 6 min 31 sec) 
Heartbeat CPU 0 instructions: 200000000 cycles: 137950112 heartbeat IPC: 0.989075 cumulative IPC: 1.01328 (Simulation time: 0 hr 6 min 48 sec) 
Heartbeat CPU 0 instructions: 210000002 cycles: 147814025 heartbeat IPC: 1.0138 cumulative IPC: 1.01333 (Simulation time: 0 hr 7 min 5 sec) 
Heartbeat CPU 0 instructions: 220000000 cycles: 157858559 heartbeat IPC: 0.995566 cumulative IPC: 1.01182 (Simulation time: 0 hr 7 min 23 sec) 
Heartbeat CPU 0 instructions: 230000003 cycles: 167848117 heartbeat IPC: 1.00105 cumulative IPC: 1.01099 (Simulation time: 0 hr 7 min 40 sec) 
Heartbeat CPU 0 instructions: 240000000 cycles: 177698514 heartbeat IPC: 1.01519 cumulative IPC: 1.01129 (Simulation time: 0 hr 7 min 57 sec) 
Heartbeat CPU 0 instructions: 250000000 cycles: 187483954 heartbeat IPC: 1.02193 cumulative IPC: 1.01199 (Simulation time: 0 hr 8 min 15 sec) 
Heartbeat CPU 0 instructions: 260000000 cycles: 197271635 heartbeat IPC: 1.02169 cumulative IPC: 1.01259 (Simulation time: 0 hr 8 min 32 sec) 
Heartbeat CPU 0 instructions: 270000003 cycles: 207068319 heartbeat IPC: 1.02075 cumulative IPC: 1.01307 (Simulation time: 0 hr 8 min 49 sec) 
Heartbeat CPU 0 instructions: 280000002 cycles: 217037554 heartbeat IPC: 1.00309 cumulative IPC: 1.01251 (Simulation time: 0 hr 9 min 6 sec) 
Heartbeat CPU 0 instructions: 290000000 cycles: 226948109 heartbeat IPC: 1.00902 cumulative IPC: 1.01232 (Simulation time: 0 hr 9 min 24 sec) 
Heartbeat CPU 0 instructions: 300000002 cycles: 236804532 heartbeat IPC: 1.01457 cumulative IPC: 1.01243 (Simulation time: 0 hr 9 min 41 sec) 
Heartbeat CPU 0 instructions: 310000000 cycles: 246701392 heartbeat IPC: 1.01042 cumulative IPC: 1.01234 (Simulation time: 0 hr 9 min 58 sec) 
Heartbeat CPU 0 instructions: 320000000 cycles: 256753655 heartbeat IPC: 0.994801 cumulative IPC: 1.01153 (Simulation time: 0 hr 10 min 15 sec) 
Heartbeat CPU 0 instructions: 330000000 cycles: 266854147 heartbeat IPC: 0.990051 cumulative IPC: 1.01058 (Simulation time: 0 hr 10 min 32 sec) 
Heartbeat CPU 0 instructions: 340000003 cycles: 276743491 heartbeat IPC: 1.01119 cumulative IPC: 1.0106 (Simulation time: 0 hr 10 min 49 sec) 
Heartbeat CPU 0 instructions: 350000000 cycles: 286642931 heartbeat IPC: 1.01016 cumulative IPC: 1.01058 (Simulation time: 0 hr 11 min 6 sec) 
Heartbeat CPU 0 instructions: 360000003 cycles: 296510962 heartbeat IPC: 1.01337 cumulative IPC: 1.01069 (Simulation time: 0 hr 11 min 24 sec) 
Heartbeat CPU 0 instructions: 370000000 cycles: 306418370 heartbeat IPC: 1.00935 cumulative IPC: 1.01064 (Simulation time: 0 hr 11 min 41 sec) 
Heartbeat CPU 0 instructions: 380000003 cycles: 316315287 heartbeat IPC: 1.01042 cumulative IPC: 1.01063 (Simulation time: 0 hr 11 min 58 sec) 
Heartbeat CPU 0 instructions: 390000002 cycles: 326251481 heartbeat IPC: 1.00642 cumulative IPC: 1.01049 (Simulation time: 0 hr 12 min 15 sec) 
Heartbeat CPU 0 instructions: 400000000 cycles: 336236161 heartbeat IPC: 1.00153 cumulative IPC: 1.01019 (Simulation time: 0 hr 12 min 32 sec) 
Heartbeat CPU 0 instructions: 410000001 cycles: 346436382 heartbeat IPC: 0.980371 cumulative IPC: 1.0092 (Simulation time: 0 hr 12 min 50 sec) 
Heartbeat CPU 0 instructions: 420000003 cycles: 356404721 heartbeat IPC: 1.00318 cumulative IPC: 1.00901 (Simulation time: 0 hr 13 min 7 sec) 
Heartbeat CPU 0 instructions: 430000001 cycles: 366447722 heartbeat IPC: 0.995718 cumulative IPC: 1.0086 (Simulation time: 0 hr 13 min 24 sec) 
Heartbeat CPU 0 instructions: 440000000 cycles: 376410558 heartbeat IPC: 1.00373 cumulative IPC: 1.00845 (Simulation time: 0 hr 13 min 41 sec) 
Heartbeat CPU 0 instructions: 450000003 cycles: 386501720 heartbeat IPC: 0.990966 cumulative IPC: 1.00795 (Simulation time: 0 hr 13 min 59 sec) 
Heartbeat CPU 0 instructions: 460000003 cycles: 396635083 heartbeat IPC: 0.986839 cumulative IPC: 1.00735 (Simulation time: 0 hr 14 min 16 sec) 
Heartbeat CPU 0 instructions: 470000000 cycles: 406791228 heartbeat IPC: 0.984625 cumulative IPC: 1.00672 (Simulation time: 0 hr 14 min 33 sec) 
Heartbeat CPU 0 instructions: 480000001 cycles: 416933798 heartbeat IPC: 0.985943 cumulative IPC: 1.00616 (Simulation time: 0 hr 14 min 50 sec) 
Heartbeat CPU 0 instructions: 490000000 cycles: 426742507 heartbeat IPC: 1.0195 cumulative IPC: 1.0065 (Simulation time: 0 hr 15 min 8 sec) 
Heartbeat CPU 0 instructions: 500000001 cycles: 436506749 heartbeat IPC: 1.02415 cumulative IPC: 1.00693 (Simulation time: 0 hr 15 min 25 sec) 
Heartbeat CPU 0 instructions: 510000000 cycles: 446201046 heartbeat IPC: 1.03153 cumulative IPC: 1.00752 (Simulation time: 0 hr 15 min 42 sec) 
Heartbeat CPU 0 instructions: 520000001 cycles: 455915585 heartbeat IPC: 1.02938 cumulative IPC: 1.00803 (Simulation time: 0 hr 15 min 59 sec) 
Heartbeat CPU 0 instructions: 530000001 cycles: 465732848 heartbeat IPC: 1.01861 cumulative IPC: 1.00827 (Simulation time: 0 hr 16 min 16 sec) 
Heartbeat CPU 0 instructions: 540000003 cycles: 475546275 heartbeat IPC: 1.01901 cumulative IPC: 1.00851 (Simulation time: 0 hr 16 min 33 sec) 
Heartbeat CPU 0 instructions: 550000000 cycles: 485305247 heartbeat IPC: 1.0247 cumulative IPC: 1.00887 (Simulation time: 0 hr 16 min 50 sec) 
Heartbeat CPU 0 instructions: 560000002 cycles: 495020222 heartbeat IPC: 1.02934 cumulative IPC: 1.0093 (Simulation time: 0 hr 17 min 8 sec) 
Heartbeat CPU 0 instructions: 570000000 cycles: 504632944 heartbeat IPC: 1.04029 cumulative IPC: 1.00994 (Simulation time: 0 hr 17 min 25 sec) 
Heartbeat CPU 0 instructions: 580000000 cycles: 514378708 heartbeat IPC: 1.02609 cumulative IPC: 1.01028 (Simulation time: 0 hr 17 min 42 sec) 
Heartbeat CPU 0 instructions: 590000000 cycles: 524239058 heartbeat IPC: 1.01416 cumulative IPC: 1.01035 (Simulation time: 0 hr 17 min 59 sec) 
Heartbeat CPU 0 instructions: 600000000 cycles: 533997569 heartbeat IPC: 1.02475 cumulative IPC: 1.01064 (Simulation time: 0 hr 18 min 16 sec) 
Heartbeat CPU 0 instructions: 610000002 cycles: 543884918 heartbeat IPC: 1.01139 cumulative IPC: 1.01065 (Simulation time: 0 hr 18 min 33 sec) 
Heartbeat CPU 0 instructions: 620000001 cycles: 553699658 heartbeat IPC: 1.01888 cumulative IPC: 1.01081 (Simulation time: 0 hr 18 min 50 sec) 
Heartbeat CPU 0 instructions: 630000000 cycles: 563472374 heartbeat IPC: 1.02326 cumulative IPC: 1.01104 (Simulation time: 0 hr 19 min 7 sec) 
Heartbeat CPU 0 instructions: 640000001 cycles: 573224087 heartbeat IPC: 1.02546 cumulative IPC: 1.01131 (Simulation time: 0 hr 19 min 24 sec) 
Heartbeat CPU 0 instructions: 650000000 cycles: 582977988 heartbeat IPC: 1.02523 cumulative IPC: 1.01156 (Simulation time: 0 hr 19 min 41 sec) 
Heartbeat CPU 0 instructions: 660000000 cycles: 592687772 heartbeat IPC: 1.02989 cumulative IPC: 1.01188 (Simulation time: 0 hr 19 min 58 sec) 
Heartbeat CPU 0 instructions: 670000000 cycles: 602271865 heartbeat IPC: 1.0434 cumulative IPC: 1.01241 (Simulation time: 0 hr 20 min 15 sec) 
Heartbeat CPU 0 instructions: 680000002 cycles: 611999016 heartbeat IPC: 1.02805 cumulative IPC: 1.01268 (Simulation time: 0 hr 20 min 32 sec) 
Heartbeat CPU 0 instructions: 690000001 cycles: 621864976 heartbeat IPC: 1.01359 cumulative IPC: 1.01269 (Simulation time: 0 hr 20 min 49 sec) 
Heartbeat CPU 0 instructions: 700000000 cycles: 631791340 heartbeat IPC: 1.00742 cumulative IPC: 1.01261 (Simulation time: 0 hr 21 min 6 sec) 
Heartbeat CPU 0 instructions: 710000001 cycles: 641486697 heartbeat IPC: 1.03142 cumulative IPC: 1.01291 (Simulation time: 0 hr 21 min 23 sec) 
Heartbeat CPU 0 instructions: 720000000 cycles: 651201489 heartbeat IPC: 1.02936 cumulative IPC: 1.01317 (Simulation time: 0 hr 21 min 40 sec) 
Heartbeat CPU 0 instructions: 730000000 cycles: 660906944 heartbeat IPC: 1.03035 cumulative IPC: 1.01344 (Simulation time: 0 hr 21 min 57 sec) 
Heartbeat CPU 0 instructions: 740000000 cycles: 670645508 heartbeat IPC: 1.02685 cumulative IPC: 1.01365 (Simulation time: 0 hr 22 min 13 sec) 
Heartbeat CPU 0 instructions: 750000000 cycles: 680437455 heartbeat IPC: 1.02125 cumulative IPC: 1.01376 (Simulation time: 0 hr 22 min 30 sec) 
Heartbeat CPU 0 instructions: 760000001 cycles: 690193017 heartbeat IPC: 1.02506 cumulative IPC: 1.01393 (Simulation time: 0 hr 22 min 47 sec) 
Heartbeat CPU 0 instructions: 770000000 cycles: 700097134 heartbeat IPC: 1.00968 cumulative IPC: 1.01387 (Simulation time: 0 hr 23 min 4 sec) 
Heartbeat CPU 0 instructions: 780000000 cycles: 710082805 heartbeat IPC: 1.00143 cumulative IPC: 1.01368 (Simulation time: 0 hr 23 min 20 sec) 
Heartbeat CPU 0 instructions: 790000001 cycles: 719977589 heartbeat IPC: 1.01063 cumulative IPC: 1.01364 (Simulation time: 0 hr 23 min 37 sec) 
Heartbeat CPU 0 instructions: 800000001 cycles: 729774007 heartbeat IPC: 1.02078 cumulative IPC: 1.01374 (Simulation time: 0 hr 23 min 54 sec) 
Heartbeat CPU 0 instructions: 810000000 cycles: 739524142 heartbeat IPC: 1.02563 cumulative IPC: 1.0139 (Simulation time: 0 hr 24 min 11 sec) 
Heartbeat CPU 0 instructions: 820000000 cycles: 749215914 heartbeat IPC: 1.0318 cumulative IPC: 1.01415 (Simulation time: 0 hr 24 min 28 sec) 
Heartbeat CPU 0 instructions: 830000000 cycles: 758804820 heartbeat IPC: 1.04287 cumulative IPC: 1.01453 (Simulation time: 0 hr 24 min 45 sec) 
Heartbeat CPU 0 instructions: 840000000 cycles: 768495276 heartbeat IPC: 1.03194 cumulative IPC: 1.01476 (Simulation time: 0 hr 25 min 2 sec) 
Heartbeat CPU 0 instructions: 850000000 cycles: 778399652 heartbeat IPC: 1.00965 cumulative IPC: 1.01469 (Simulation time: 0 hr 25 min 19 sec) 
Heartbeat CPU 0 instructions: 860000000 cycles: 788304630 heartbeat IPC: 1.00959 cumulative IPC: 1.01463 (Simulation time: 0 hr 25 min 36 sec) 
Heartbeat CPU 0 instructions: 870000000 cycles: 798078913 heartbeat IPC: 1.02309 cumulative IPC: 1.01474 (Simulation time: 0 hr 25 min 53 sec) 
Heartbeat CPU 0 instructions: 880000000 cycles: 807954053 heartbeat IPC: 1.01264 cumulative IPC: 1.01471 (Simulation time: 0 hr 26 min 10 sec) 
Heartbeat CPU 0 instructions: 890000003 cycles: 817901457 heartbeat IPC: 1.00529 cumulative IPC: 1.01459 (Simulation time: 0 hr 26 min 26 sec) 
Heartbeat CPU 0 instructions: 900000000 cycles: 827830280 heartbeat IPC: 1.00717 cumulative IPC: 1.0145 (Simulation time: 0 hr 26 min 43 sec) 
Heartbeat CPU 0 instructions: 910000002 cycles: 837794678 heartbeat IPC: 1.00357 cumulative IPC: 1.01436 (Simulation time: 0 hr 27 min 0 sec) 
Heartbeat CPU 0 instructions: 920000002 cycles: 847731330 heartbeat IPC: 1.00638 cumulative IPC: 1.01426 (Simulation time: 0 hr 27 min 18 sec) 
Heartbeat CPU 0 instructions: 930000001 cycles: 857588521 heartbeat IPC: 1.01449 cumulative IPC: 1.01426 (Simulation time: 0 hr 27 min 35 sec) 
Heartbeat CPU 0 instructions: 940000000 cycles: 867505681 heartbeat IPC: 1.00835 cumulative IPC: 1.01419 (Simulation time: 0 hr 27 min 54 sec) 
Heartbeat CPU 0 instructions: 950000000 cycles: 877391866 heartbeat IPC: 1.01151 cumulative IPC: 1.01416 (Simulation time: 0 hr 28 min 14 sec) 
Heartbeat CPU 0 instructions: 960000001 cycles: 887241882 heartbeat IPC: 1.01523 cumulative IPC: 1.01417 (Simulation time: 0 hr 28 min 33 sec) 
Heartbeat CPU 0 instructions: 970000002 cycles: 897092566 heartbeat IPC: 1.01516 cumulative IPC: 1.01419 (Simulation time: 0 hr 28 min 52 sec) 
Heartbeat CPU 0 instructions: 980000000 cycles: 906942510 heartbeat IPC: 1.01523 cumulative IPC: 1.0142 (Simulation time: 0 hr 29 min 11 sec) 
Heartbeat CPU 0 instructions: 990000000 cycles: 916697285 heartbeat IPC: 1.02514 cumulative IPC: 1.01432 (Simulation time: 0 hr 29 min 31 sec) 
Heartbeat CPU 0 instructions: 1000000002 cycles: 926792218 heartbeat IPC: 0.990596 cumulative IPC: 1.01405 (Simulation time: 0 hr 29 min 50 sec) 
Heartbeat CPU 0 instructions: 1010000003 cycles: 936586874 heartbeat IPC: 1.02096 cumulative IPC: 1.01412 (Simulation time: 0 hr 30 min 10 sec) 
Heartbeat CPU 0 instructions: 1020000001 cycles: 946469893 heartbeat IPC: 1.01184 cumulative IPC: 1.0141 (Simulation time: 0 hr 30 min 29 sec) 
Heartbeat CPU 0 instructions: 1030000001 cycles: 956411111 heartbeat IPC: 1.00591 cumulative IPC: 1.01401 (Simulation time: 0 hr 30 min 48 sec) 
Heartbeat CPU 0 instructions: 1040000002 cycles: 966411207 heartbeat IPC: 0.999991 cumulative IPC: 1.01386 (Simulation time: 0 hr 31 min 7 sec) 
Heartbeat CPU 0 instructions: 1050000002 cycles: 976351899 heartbeat IPC: 1.00597 cumulative IPC: 1.01378 (Simulation time: 0 hr 31 min 26 sec) 
Heartbeat CPU 0 instructions: 1060000000 cycles: 986416986 heartbeat IPC: 0.993533 cumulative IPC: 1.01356 (Simulation time: 0 hr 31 min 45 sec) 
Heartbeat CPU 0 instructions: 1070000000 cycles: 996458853 heartbeat IPC: 0.995831 cumulative IPC: 1.01337 (Simulation time: 0 hr 32 min 4 sec) 
Heartbeat CPU 0 instructions: 1080000003 cycles: 1006491365 heartbeat IPC: 0.99676 cumulative IPC: 1.0132 (Simulation time: 0 hr 32 min 23 sec) 
Heartbeat CPU 0 instructions: 1090000001 cycles: 1016429443 heartbeat IPC: 1.00623 cumulative IPC: 1.01313 (Simulation time: 0 hr 32 min 42 sec) 
Heartbeat CPU 0 instructions: 1100000000 cycles: 1026274031 heartbeat IPC: 1.01579 cumulative IPC: 1.01316 (Simulation time: 0 hr 33 min 2 sec) 
Finished CPU 0 instructions: 1000000000 cycles: 987013062 cumulative IPC: 1.01316 (Simulation time: 0 hr 33 min 2 sec) 

ChampSim completed all CPUs

Region of Interest Statistics

CPU 0 cumulative IPC: 1.01316 instructions: 1000000000 cycles: 987013062
L1D TOTAL     ACCESS:  298882492  HIT:  297536791  MISS:    1345701
L1D LOAD      ACCESS:  182738710  HIT:  181803290  MISS:     935420
L1D RFO       ACCESS:  116143782  HIT:  115733501  MISS:     410281
L1D PREFETCH  ACCESS:          0  HIT:          0  MISS:          0
L1D WRITEBACK ACCESS:          0  HIT:          0  MISS:          0
L1D PREFETCH  REQUESTED:          0  ISSUED:          0  USEFUL:          0  USELESS:          0
L1D AVERAGE MISS LATENCY: 53.7876 cycles
L1I TOTAL     ACCESS:  174284161  HIT:  173328495  MISS:     955666
L1I LOAD      ACCESS:  174284161  HIT:  173328495  MISS:     955666
L1I RFO       ACCESS:          0  HIT:          0  MISS:          0
L1I PREFETCH  ACCESS:          0  HIT:          0  MISS:          0
L1I WRITEBACK ACCESS:          0  HIT:          0  MISS:          0
L1I PREFETCH  REQUESTED:          0  ISSUED:          0  USEFUL:          0  USELESS:          0
L1I AVERAGE MISS LATENCY: 13.158 cycles
L2C TOTAL     ACCESS:    2969365  HIT:    2664079  MISS:     305286
L2C LOAD      ACCESS:    1891051  HIT:    1602668  MISS:     288383
L2C RFO       ACCESS:     410217  HIT:     393991  MISS:      16226
L2C PREFETCH  ACCESS:          0  HIT:          0  MISS:          0
L2C WRITEBACK ACCESS:     668097  HIT:     667420  MISS:        677
L2C PREFETCH  REQUESTED:          0  ISSUED:          0  USEFUL:          0  USELESS:          0
L2C AVERAGE MISS LATENCY: 182.683 cycles
LLC TOTAL     ACCESS:     511662  HIT:      89920  MISS:     421742
LLC LOAD      ACCESS:     288383  HIT:      20614  MISS:     267769
LLC RFO       ACCESS:      16226  HIT:      13996  MISS:       2230
LLC PREFETCH  ACCESS:          0  HIT:          0  MISS:          0
LLC WRITEBACK ACCESS:     207053  HIT:      55310  MISS:     151743
LLC PREFETCH  REQUESTED:          0  ISSUED:          0  USEFUL:          0  USELESS:          0
LLC AVERAGE MISS LATENCY: 103.271 cycles
Major fault: 0 Minor fault: 161415
==============================
Perceptron RRIP Stats:
   Num Updates:          14160
   Num Primary Trains:   339
   Num Secondary Trains: 352
==============================
primary_perceptron #0: -3 -1 1 1 5 -3 -1 -1 1 1 1 -3 1 1 1 -17 
secondary_perceptron #0: -4 -4 2 4 6 -2 2 0 4 2 0 -2 2 2 0 0 2 0 0 0 -22 


DRAM Statistics
 CHANNEL 0
 RQ ROW_BUFFER_HIT:      61989  ROW_BUFFER_MISS:     208010
 DBUS_CONGESTED:      49638
 WQ ROW_BUFFER_HIT:       5025  ROW_BUFFER_MISS:     176379  FULL:          0

 AVG_CONGESTED_CYCLE: 6

CPU 0 Branch Prediction Accuracy: 90.7181% MPKI: 13.7272 Average ROB Occupancy at Mispredict: 30.4413

Branch types
NOT_BRANCH: 852108097 85.2108%
BRANCH_DIRECT_JUMP: 8658948 0.865895%
BRANCH_INDIRECT: 862270 0.086227%
BRANCH_CONDITIONAL: 98627220 9.86272%
BRANCH_DIRECT_CALL: 19871562 1.98716%
BRANCH_INDIRECT_CALL: 0 0%
BRANCH_RETURN: 19871559 1.98716%
BRANCH_OTHER: 0 0%

