
*** ChampSim Multicore Out-of-Order Simulator ***

Warmup Instructions: 100000000
Simulation Instructions: 1000000000
Number of CPUs: 1
LLC sets: 2048
LLC ways: 16
Off-chip DRAM Size: 4096 MB Channels: 1 Width: 64-bit Data Rate: 3200 MT/s

CPU 0 runs /scratch/user/kevin.weston/dpc3-traces/631.champsimtrace.xz
CPU 0 Bimodal branch predictor
Initialize RRPV
Initialize PRRIP state
Heartbeat CPU 0 instructions: 10000000 cycles: 3950840 heartbeat IPC: 2.53111 cumulative IPC: 2.53111 (Simulation time: 0 hr 0 min 23 sec) 
Heartbeat CPU 0 instructions: 20000000 cycles: 8026462 heartbeat IPC: 2.45361 cumulative IPC: 2.49176 (Simulation time: 0 hr 0 min 47 sec) 
Heartbeat CPU 0 instructions: 30000000 cycles: 11977400 heartbeat IPC: 2.53104 cumulative IPC: 2.50472 (Simulation time: 0 hr 1 min 10 sec) 
Heartbeat CPU 0 instructions: 40000001 cycles: 15930240 heartbeat IPC: 2.52983 cumulative IPC: 2.51095 (Simulation time: 0 hr 1 min 34 sec) 
Heartbeat CPU 0 instructions: 50000001 cycles: 19880863 heartbeat IPC: 2.53125 cumulative IPC: 2.51498 (Simulation time: 0 hr 1 min 57 sec) 
Heartbeat CPU 0 instructions: 60000001 cycles: 23739172 heartbeat IPC: 2.59181 cumulative IPC: 2.52747 (Simulation time: 0 hr 2 min 20 sec) 
Heartbeat CPU 0 instructions: 70000001 cycles: 27563171 heartbeat IPC: 2.61506 cumulative IPC: 2.53962 (Simulation time: 0 hr 2 min 43 sec) 
Heartbeat CPU 0 instructions: 80000002 cycles: 31430085 heartbeat IPC: 2.58604 cumulative IPC: 2.54533 (Simulation time: 0 hr 3 min 7 sec) 
Heartbeat CPU 0 instructions: 90000001 cycles: 35327750 heartbeat IPC: 2.56564 cumulative IPC: 2.54757 (Simulation time: 0 hr 3 min 30 sec) 
Heartbeat CPU 0 instructions: 100000001 cycles: 39260981 heartbeat IPC: 2.54244 cumulative IPC: 2.54706 (Simulation time: 0 hr 3 min 53 sec) 

Warmup complete CPU 0 instructions: 100000001 cycles: 39260981 (Simulation time: 0 hr 3 min 53 sec) 

Heartbeat CPU 0 instructions: 110000000 cycles: 49128163 heartbeat IPC: 1.01346 cumulative IPC: 1.01346 (Simulation time: 0 hr 4 min 10 sec) 
Heartbeat CPU 0 instructions: 120000002 cycles: 58849619 heartbeat IPC: 1.02865 cumulative IPC: 1.021 (Simulation time: 0 hr 4 min 27 sec) 
Heartbeat CPU 0 instructions: 130000001 cycles: 68692520 heartbeat IPC: 1.01596 cumulative IPC: 1.01931 (Simulation time: 0 hr 4 min 44 sec) 
Heartbeat CPU 0 instructions: 140000002 cycles: 78505577 heartbeat IPC: 1.01905 cumulative IPC: 1.01925 (Simulation time: 0 hr 5 min 1 sec) 
Heartbeat CPU 0 instructions: 150000002 cycles: 88243027 heartbeat IPC: 1.02696 cumulative IPC: 1.02078 (Simulation time: 0 hr 5 min 18 sec) 
Heartbeat CPU 0 instructions: 160000001 cycles: 98039979 heartbeat IPC: 1.02073 cumulative IPC: 1.02077 (Simulation time: 0 hr 5 min 35 sec) 
Heartbeat CPU 0 instructions: 170000001 cycles: 107891031 heartbeat IPC: 1.01512 cumulative IPC: 1.01996 (Simulation time: 0 hr 5 min 52 sec) 
Heartbeat CPU 0 instructions: 180000002 cycles: 117802727 heartbeat IPC: 1.00891 cumulative IPC: 1.01857 (Simulation time: 0 hr 6 min 9 sec) 
Heartbeat CPU 0 instructions: 190000003 cycles: 127725976 heartbeat IPC: 1.00773 cumulative IPC: 1.01735 (Simulation time: 0 hr 6 min 26 sec) 
Heartbeat CPU 0 instructions: 200000000 cycles: 137809520 heartbeat IPC: 0.991715 cumulative IPC: 1.01473 (Simulation time: 0 hr 6 min 43 sec) 
Heartbeat CPU 0 instructions: 210000002 cycles: 147635749 heartbeat IPC: 1.01768 cumulative IPC: 1.015 (Simulation time: 0 hr 7 min 1 sec) 
Heartbeat CPU 0 instructions: 220000000 cycles: 157642381 heartbeat IPC: 0.999337 cumulative IPC: 1.01367 (Simulation time: 0 hr 7 min 18 sec) 
Heartbeat CPU 0 instructions: 230000003 cycles: 167612376 heartbeat IPC: 1.00301 cumulative IPC: 1.01284 (Simulation time: 0 hr 7 min 35 sec) 
Heartbeat CPU 0 instructions: 240000000 cycles: 177427224 heartbeat IPC: 1.01886 cumulative IPC: 1.01327 (Simulation time: 0 hr 7 min 52 sec) 
Heartbeat CPU 0 instructions: 250000000 cycles: 187187797 heartbeat IPC: 1.02453 cumulative IPC: 1.01401 (Simulation time: 0 hr 8 min 10 sec) 
Heartbeat CPU 0 instructions: 260000000 cycles: 196955677 heartbeat IPC: 1.02376 cumulative IPC: 1.01462 (Simulation time: 0 hr 8 min 27 sec) 
Heartbeat CPU 0 instructions: 270000003 cycles: 206737039 heartbeat IPC: 1.02235 cumulative IPC: 1.01507 (Simulation time: 0 hr 8 min 44 sec) 
Heartbeat CPU 0 instructions: 280000002 cycles: 216676769 heartbeat IPC: 1.00606 cumulative IPC: 1.01457 (Simulation time: 0 hr 9 min 1 sec) 
Heartbeat CPU 0 instructions: 290000000 cycles: 226574706 heartbeat IPC: 1.01031 cumulative IPC: 1.01434 (Simulation time: 0 hr 9 min 18 sec) 
Heartbeat CPU 0 instructions: 300000002 cycles: 236423221 heartbeat IPC: 1.01538 cumulative IPC: 1.01439 (Simulation time: 0 hr 9 min 35 sec) 
Heartbeat CPU 0 instructions: 310000000 cycles: 246307195 heartbeat IPC: 1.01174 cumulative IPC: 1.01427 (Simulation time: 0 hr 9 min 53 sec) 
Heartbeat CPU 0 instructions: 320000000 cycles: 256347029 heartbeat IPC: 0.996032 cumulative IPC: 1.01342 (Simulation time: 0 hr 10 min 10 sec) 
Heartbeat CPU 0 instructions: 330000000 cycles: 266428666 heartbeat IPC: 0.991902 cumulative IPC: 1.01247 (Simulation time: 0 hr 10 min 27 sec) 
Heartbeat CPU 0 instructions: 340000003 cycles: 276295160 heartbeat IPC: 1.01353 cumulative IPC: 1.01251 (Simulation time: 0 hr 10 min 44 sec) 
Heartbeat CPU 0 instructions: 350000000 cycles: 286188461 heartbeat IPC: 1.01078 cumulative IPC: 1.01244 (Simulation time: 0 hr 11 min 2 sec) 
Heartbeat CPU 0 instructions: 360000003 cycles: 296048221 heartbeat IPC: 1.01422 cumulative IPC: 1.01251 (Simulation time: 0 hr 11 min 19 sec) 
Heartbeat CPU 0 instructions: 370000000 cycles: 305935080 heartbeat IPC: 1.01144 cumulative IPC: 1.01247 (Simulation time: 0 hr 11 min 36 sec) 
Heartbeat CPU 0 instructions: 380000003 cycles: 315801080 heartbeat IPC: 1.01358 cumulative IPC: 1.01251 (Simulation time: 0 hr 11 min 54 sec) 
Heartbeat CPU 0 instructions: 390000002 cycles: 325724365 heartbeat IPC: 1.00773 cumulative IPC: 1.01235 (Simulation time: 0 hr 12 min 11 sec) 
Heartbeat CPU 0 instructions: 400000000 cycles: 335700371 heartbeat IPC: 1.0024 cumulative IPC: 1.01201 (Simulation time: 0 hr 12 min 28 sec) 
Heartbeat CPU 0 instructions: 410000001 cycles: 345895755 heartbeat IPC: 0.980836 cumulative IPC: 1.01097 (Simulation time: 0 hr 12 min 46 sec) 
Heartbeat CPU 0 instructions: 420000003 cycles: 355860326 heartbeat IPC: 1.00356 cumulative IPC: 1.01074 (Simulation time: 0 hr 13 min 3 sec) 
Heartbeat CPU 0 instructions: 430000001 cycles: 365892859 heartbeat IPC: 0.996757 cumulative IPC: 1.01031 (Simulation time: 0 hr 13 min 21 sec) 
Heartbeat CPU 0 instructions: 440000000 cycles: 375828409 heartbeat IPC: 1.00649 cumulative IPC: 1.0102 (Simulation time: 0 hr 13 min 38 sec) 
Heartbeat CPU 0 instructions: 450000003 cycles: 385868523 heartbeat IPC: 0.996005 cumulative IPC: 1.00979 (Simulation time: 0 hr 13 min 55 sec) 
Heartbeat CPU 0 instructions: 460000003 cycles: 395910723 heartbeat IPC: 0.995798 cumulative IPC: 1.00939 (Simulation time: 0 hr 14 min 12 sec) 
Heartbeat CPU 0 instructions: 470000000 cycles: 405960807 heartbeat IPC: 0.995016 cumulative IPC: 1.009 (Simulation time: 0 hr 14 min 30 sec) 
Heartbeat CPU 0 instructions: 480000001 cycles: 415969251 heartbeat IPC: 0.999156 cumulative IPC: 1.00874 (Simulation time: 0 hr 14 min 47 sec) 
Heartbeat CPU 0 instructions: 490000000 cycles: 425739997 heartbeat IPC: 1.02346 cumulative IPC: 1.00911 (Simulation time: 0 hr 15 min 5 sec) 
Heartbeat CPU 0 instructions: 500000001 cycles: 435499491 heartbeat IPC: 1.02464 cumulative IPC: 1.00949 (Simulation time: 0 hr 15 min 22 sec) 
Heartbeat CPU 0 instructions: 510000000 cycles: 445188711 heartbeat IPC: 1.03207 cumulative IPC: 1.01003 (Simulation time: 0 hr 15 min 39 sec) 
Heartbeat CPU 0 instructions: 520000001 cycles: 454887643 heartbeat IPC: 1.03104 cumulative IPC: 1.01052 (Simulation time: 0 hr 15 min 57 sec) 
Heartbeat CPU 0 instructions: 530000001 cycles: 464701974 heartbeat IPC: 1.01892 cumulative IPC: 1.01072 (Simulation time: 0 hr 16 min 14 sec) 
Heartbeat CPU 0 instructions: 540000003 cycles: 474515417 heartbeat IPC: 1.01901 cumulative IPC: 1.0109 (Simulation time: 0 hr 16 min 31 sec) 
Heartbeat CPU 0 instructions: 550000000 cycles: 484268640 heartbeat IPC: 1.0253 cumulative IPC: 1.01122 (Simulation time: 0 hr 16 min 48 sec) 
Heartbeat CPU 0 instructions: 560000002 cycles: 493954358 heartbeat IPC: 1.03245 cumulative IPC: 1.01167 (Simulation time: 0 hr 17 min 6 sec) 
Heartbeat CPU 0 instructions: 570000000 cycles: 503560645 heartbeat IPC: 1.04098 cumulative IPC: 1.01228 (Simulation time: 0 hr 17 min 23 sec) 
Heartbeat CPU 0 instructions: 580000000 cycles: 513281625 heartbeat IPC: 1.0287 cumulative IPC: 1.01261 (Simulation time: 0 hr 17 min 41 sec) 
Heartbeat CPU 0 instructions: 590000000 cycles: 523132578 heartbeat IPC: 1.01513 cumulative IPC: 1.01267 (Simulation time: 0 hr 17 min 58 sec) 
Heartbeat CPU 0 instructions: 600000000 cycles: 532884715 heartbeat IPC: 1.02542 cumulative IPC: 1.01292 (Simulation time: 0 hr 18 min 15 sec) 
Heartbeat CPU 0 instructions: 610000002 cycles: 542769214 heartbeat IPC: 1.01169 cumulative IPC: 1.01289 (Simulation time: 0 hr 18 min 32 sec) 
Heartbeat CPU 0 instructions: 620000001 cycles: 552576799 heartbeat IPC: 1.01962 cumulative IPC: 1.01302 (Simulation time: 0 hr 18 min 50 sec) 
Heartbeat CPU 0 instructions: 630000000 cycles: 562343083 heartbeat IPC: 1.02393 cumulative IPC: 1.01323 (Simulation time: 0 hr 19 min 7 sec) 
Heartbeat CPU 0 instructions: 640000001 cycles: 572085833 heartbeat IPC: 1.0264 cumulative IPC: 1.01347 (Simulation time: 0 hr 19 min 24 sec) 
Heartbeat CPU 0 instructions: 650000000 cycles: 581830538 heartbeat IPC: 1.0262 cumulative IPC: 1.01369 (Simulation time: 0 hr 19 min 42 sec) 
Heartbeat CPU 0 instructions: 660000000 cycles: 591535026 heartbeat IPC: 1.03045 cumulative IPC: 1.01399 (Simulation time: 0 hr 19 min 59 sec) 
Heartbeat CPU 0 instructions: 670000000 cycles: 601115322 heartbeat IPC: 1.04381 cumulative IPC: 1.0145 (Simulation time: 0 hr 20 min 17 sec) 
Heartbeat CPU 0 instructions: 680000002 cycles: 610839185 heartbeat IPC: 1.0284 cumulative IPC: 1.01473 (Simulation time: 0 hr 20 min 34 sec) 
Heartbeat CPU 0 instructions: 690000001 cycles: 620702050 heartbeat IPC: 1.0139 cumulative IPC: 1.01472 (Simulation time: 0 hr 20 min 51 sec) 
Heartbeat CPU 0 instructions: 700000000 cycles: 630622966 heartbeat IPC: 1.00797 cumulative IPC: 1.01461 (Simulation time: 0 hr 21 min 8 sec) 
Heartbeat CPU 0 instructions: 710000001 cycles: 640311989 heartbeat IPC: 1.0321 cumulative IPC: 1.01489 (Simulation time: 0 hr 21 min 26 sec) 
Heartbeat CPU 0 instructions: 720000000 cycles: 650020822 heartbeat IPC: 1.02999 cumulative IPC: 1.01513 (Simulation time: 0 hr 21 min 43 sec) 
Heartbeat CPU 0 instructions: 730000000 cycles: 659715046 heartbeat IPC: 1.03154 cumulative IPC: 1.01539 (Simulation time: 0 hr 22 min 1 sec) 
Heartbeat CPU 0 instructions: 740000000 cycles: 669450046 heartbeat IPC: 1.02722 cumulative IPC: 1.01557 (Simulation time: 0 hr 22 min 18 sec) 
Heartbeat CPU 0 instructions: 750000000 cycles: 679253411 heartbeat IPC: 1.02006 cumulative IPC: 1.01564 (Simulation time: 0 hr 22 min 35 sec) 
Heartbeat CPU 0 instructions: 760000001 cycles: 689012092 heartbeat IPC: 1.02473 cumulative IPC: 1.01577 (Simulation time: 0 hr 22 min 53 sec) 
Heartbeat CPU 0 instructions: 770000000 cycles: 698915918 heartbeat IPC: 1.00971 cumulative IPC: 1.01568 (Simulation time: 0 hr 23 min 10 sec) 
Heartbeat CPU 0 instructions: 780000000 cycles: 708902128 heartbeat IPC: 1.00138 cumulative IPC: 1.01547 (Simulation time: 0 hr 23 min 27 sec) 
Heartbeat CPU 0 instructions: 790000001 cycles: 718792861 heartbeat IPC: 1.01105 cumulative IPC: 1.0154 (Simulation time: 0 hr 23 min 44 sec) 
Heartbeat CPU 0 instructions: 800000001 cycles: 728608933 heartbeat IPC: 1.01874 cumulative IPC: 1.01545 (Simulation time: 0 hr 24 min 2 sec) 
Heartbeat CPU 0 instructions: 810000000 cycles: 738366184 heartbeat IPC: 1.02488 cumulative IPC: 1.01558 (Simulation time: 0 hr 24 min 19 sec) 
Heartbeat CPU 0 instructions: 820000000 cycles: 748038903 heartbeat IPC: 1.03384 cumulative IPC: 1.01583 (Simulation time: 0 hr 24 min 37 sec) 
Heartbeat CPU 0 instructions: 830000000 cycles: 757632052 heartbeat IPC: 1.04241 cumulative IPC: 1.01619 (Simulation time: 0 hr 24 min 54 sec) 
Heartbeat CPU 0 instructions: 840000000 cycles: 767323054 heartbeat IPC: 1.03189 cumulative IPC: 1.0164 (Simulation time: 0 hr 25 min 12 sec) 
Heartbeat CPU 0 instructions: 850000000 cycles: 777227326 heartbeat IPC: 1.00967 cumulative IPC: 1.01631 (Simulation time: 0 hr 25 min 29 sec) 
Heartbeat CPU 0 instructions: 860000000 cycles: 787139206 heartbeat IPC: 1.00889 cumulative IPC: 1.01621 (Simulation time: 0 hr 25 min 47 sec) 
Heartbeat CPU 0 instructions: 870000000 cycles: 796912421 heartbeat IPC: 1.0232 cumulative IPC: 1.0163 (Simulation time: 0 hr 26 min 5 sec) 
Heartbeat CPU 0 instructions: 880000000 cycles: 806789502 heartbeat IPC: 1.01244 cumulative IPC: 1.01625 (Simulation time: 0 hr 26 min 22 sec) 
Heartbeat CPU 0 instructions: 890000003 cycles: 816723647 heartbeat IPC: 1.00663 cumulative IPC: 1.01613 (Simulation time: 0 hr 26 min 40 sec) 
Heartbeat CPU 0 instructions: 900000000 cycles: 826641062 heartbeat IPC: 1.00833 cumulative IPC: 1.01603 (Simulation time: 0 hr 26 min 57 sec) 
Heartbeat CPU 0 instructions: 910000002 cycles: 836597037 heartbeat IPC: 1.00442 cumulative IPC: 1.01588 (Simulation time: 0 hr 27 min 15 sec) 
Heartbeat CPU 0 instructions: 920000002 cycles: 846495464 heartbeat IPC: 1.01026 cumulative IPC: 1.01581 (Simulation time: 0 hr 27 min 32 sec) 
Heartbeat CPU 0 instructions: 930000001 cycles: 856308353 heartbeat IPC: 1.01907 cumulative IPC: 1.01585 (Simulation time: 0 hr 27 min 50 sec) 
Heartbeat CPU 0 instructions: 940000000 cycles: 866166787 heartbeat IPC: 1.01436 cumulative IPC: 1.01584 (Simulation time: 0 hr 28 min 8 sec) 
Heartbeat CPU 0 instructions: 950000000 cycles: 876021909 heartbeat IPC: 1.0147 cumulative IPC: 1.01582 (Simulation time: 0 hr 28 min 26 sec) 
Heartbeat CPU 0 instructions: 960000001 cycles: 885853845 heartbeat IPC: 1.01709 cumulative IPC: 1.01584 (Simulation time: 0 hr 28 min 43 sec) 
Heartbeat CPU 0 instructions: 970000002 cycles: 895652351 heartbeat IPC: 1.02056 cumulative IPC: 1.01589 (Simulation time: 0 hr 29 min 1 sec) 
Heartbeat CPU 0 instructions: 980000000 cycles: 905479514 heartbeat IPC: 1.01759 cumulative IPC: 1.01591 (Simulation time: 0 hr 29 min 18 sec) 
Heartbeat CPU 0 instructions: 990000000 cycles: 915223509 heartbeat IPC: 1.02627 cumulative IPC: 1.01603 (Simulation time: 0 hr 29 min 36 sec) 
Heartbeat CPU 0 instructions: 1000000002 cycles: 925319696 heartbeat IPC: 0.990473 cumulative IPC: 1.01573 (Simulation time: 0 hr 29 min 53 sec) 
Heartbeat CPU 0 instructions: 1010000003 cycles: 935098519 heartbeat IPC: 1.02262 cumulative IPC: 1.01581 (Simulation time: 0 hr 30 min 11 sec) 
Heartbeat CPU 0 instructions: 1020000001 cycles: 944963115 heartbeat IPC: 1.01373 cumulative IPC: 1.01579 (Simulation time: 0 hr 30 min 29 sec) 
Heartbeat CPU 0 instructions: 1030000001 cycles: 954898352 heartbeat IPC: 1.00652 cumulative IPC: 1.01569 (Simulation time: 0 hr 30 min 47 sec) 
Heartbeat CPU 0 instructions: 1040000002 cycles: 964885509 heartbeat IPC: 1.00129 cumulative IPC: 1.01553 (Simulation time: 0 hr 31 min 4 sec) 
Heartbeat CPU 0 instructions: 1050000002 cycles: 974806529 heartbeat IPC: 1.00796 cumulative IPC: 1.01545 (Simulation time: 0 hr 31 min 22 sec) 
Heartbeat CPU 0 instructions: 1060000000 cycles: 984859815 heartbeat IPC: 0.994699 cumulative IPC: 1.01523 (Simulation time: 0 hr 31 min 39 sec) 
Heartbeat CPU 0 instructions: 1070000000 cycles: 994892641 heartbeat IPC: 0.996728 cumulative IPC: 1.01504 (Simulation time: 0 hr 31 min 57 sec) 
Heartbeat CPU 0 instructions: 1080000003 cycles: 1004894536 heartbeat IPC: 0.999811 cumulative IPC: 1.01488 (Simulation time: 0 hr 32 min 15 sec) 
Heartbeat CPU 0 instructions: 1090000001 cycles: 1014825730 heartbeat IPC: 1.00693 cumulative IPC: 1.0148 (Simulation time: 0 hr 32 min 33 sec) 
Heartbeat CPU 0 instructions: 1100000000 cycles: 1024662899 heartbeat IPC: 1.01655 cumulative IPC: 1.01481 (Simulation time: 0 hr 32 min 51 sec) 
Finished CPU 0 instructions: 1000000000 cycles: 985401919 cumulative IPC: 1.01481 (Simulation time: 0 hr 32 min 51 sec) 

ChampSim completed all CPUs

Region of Interest Statistics

CPU 0 cumulative IPC: 1.01481 instructions: 1000000000 cycles: 985401919
L1D TOTAL     ACCESS:  298881436  HIT:  297535738  MISS:    1345698
L1D LOAD      ACCESS:  182738642  HIT:  181803221  MISS:     935421
L1D RFO       ACCESS:  116142794  HIT:  115732517  MISS:     410277
L1D PREFETCH  ACCESS:          0  HIT:          0  MISS:          0
L1D WRITEBACK ACCESS:          0  HIT:          0  MISS:          0
L1D PREFETCH  REQUESTED:          0  ISSUED:          0  USEFUL:          0  USELESS:          0
L1D AVERAGE MISS LATENCY: 52.4343 cycles
L1I TOTAL     ACCESS:  174283742  HIT:  173328076  MISS:     955666
L1I LOAD      ACCESS:  174283742  HIT:  173328076  MISS:     955666
L1I RFO       ACCESS:          0  HIT:          0  MISS:          0
L1I PREFETCH  ACCESS:          0  HIT:          0  MISS:          0
L1I WRITEBACK ACCESS:          0  HIT:          0  MISS:          0
L1I PREFETCH  REQUESTED:          0  ISSUED:          0  USEFUL:          0  USELESS:          0
L1I AVERAGE MISS LATENCY: 13.1632 cycles
L2C TOTAL     ACCESS:    2969358  HIT:    2662048  MISS:     307310
L2C LOAD      ACCESS:    1891052  HIT:    1601674  MISS:     289378
L2C RFO       ACCESS:     410213  HIT:     392959  MISS:      17254
L2C PREFETCH  ACCESS:          0  HIT:          0  MISS:          0
L2C WRITEBACK ACCESS:     668093  HIT:     667415  MISS:        678
L2C PREFETCH  REQUESTED:          0  ISSUED:          0  USEFUL:          0  USELESS:          0
L2C AVERAGE MISS LATENCY: 175.57 cycles
LLC TOTAL     ACCESS:     514864  HIT:     123803  MISS:     391061
LLC LOAD      ACCESS:     289378  HIT:      30263  MISS:     259115
LLC RFO       ACCESS:      17254  HIT:      15167  MISS:       2087
LLC PREFETCH  ACCESS:          0  HIT:          0  MISS:          0
LLC WRITEBACK ACCESS:     208232  HIT:      78373  MISS:     129859
LLC PREFETCH  REQUESTED:          0  ISSUED:          0  USEFUL:          0  USELESS:          0
LLC AVERAGE MISS LATENCY: 106.517 cycles
Major fault: 0 Minor fault: 161415
==============================
Perceptron RRIP Stats:
   Num Updates:          533899
   Num Primary Trains:   76598
   Num Secondary Trains: 76568
==============================
primary_perceptron #0: 0 -2 2 -2 -2 4 -2 -2 4 -2 -2 -4 -2 2 -2 -10 
secondary_perceptron #0: 4 2 -2 0 -2 2 -2 -2 4 -2 -2 -2 -4 0 0 2 4 0 0 -6 -16 


DRAM Statistics
 CHANNEL 0
 RQ ROW_BUFFER_HIT:      64795  ROW_BUFFER_MISS:     196407
 DBUS_CONGESTED:      48547
 WQ ROW_BUFFER_HIT:       4633  ROW_BUFFER_MISS:     166768  FULL:          0

 AVG_CONGESTED_CYCLE: 6

CPU 0 Branch Prediction Accuracy: 90.7181% MPKI: 13.7272 Average ROB Occupancy at Mispredict: 30.437

Branch types
NOT_BRANCH: 852108097 85.2108%
BRANCH_DIRECT_JUMP: 8658948 0.865895%
BRANCH_INDIRECT: 862270 0.086227%
BRANCH_CONDITIONAL: 98627220 9.86272%
BRANCH_DIRECT_CALL: 19871562 1.98716%
BRANCH_INDIRECT_CALL: 0 0%
BRANCH_RETURN: 19871559 1.98716%
BRANCH_OTHER: 0 0%

