
*** ChampSim Multicore Out-of-Order Simulator ***

Warmup Instructions: 100000000
Simulation Instructions: 1000000000
Number of CPUs: 1
LLC sets: 2048
LLC ways: 16
Off-chip DRAM Size: 4096 MB Channels: 1 Width: 64-bit Data Rate: 3200 MT/s

CPU 0 runs /scratch/user/kevin.weston/dpc3-traces/631.champsimtrace.xz
CPU 0 Bimodal branch predictor
Initialize RRPV
Initialize PRRIP state
Heartbeat CPU 0 instructions: 10000000 cycles: 3950840 heartbeat IPC: 2.53111 cumulative IPC: 2.53111 (Simulation time: 0 hr 0 min 27 sec) 
Heartbeat CPU 0 instructions: 20000000 cycles: 8026462 heartbeat IPC: 2.45361 cumulative IPC: 2.49176 (Simulation time: 0 hr 0 min 53 sec) 
Heartbeat CPU 0 instructions: 30000000 cycles: 11977400 heartbeat IPC: 2.53104 cumulative IPC: 2.50472 (Simulation time: 0 hr 1 min 20 sec) 
Heartbeat CPU 0 instructions: 40000001 cycles: 15930240 heartbeat IPC: 2.52983 cumulative IPC: 2.51095 (Simulation time: 0 hr 1 min 46 sec) 
Heartbeat CPU 0 instructions: 50000001 cycles: 19880863 heartbeat IPC: 2.53125 cumulative IPC: 2.51498 (Simulation time: 0 hr 2 min 12 sec) 
Heartbeat CPU 0 instructions: 60000001 cycles: 23739172 heartbeat IPC: 2.59181 cumulative IPC: 2.52747 (Simulation time: 0 hr 2 min 38 sec) 
Heartbeat CPU 0 instructions: 70000001 cycles: 27563171 heartbeat IPC: 2.61506 cumulative IPC: 2.53962 (Simulation time: 0 hr 3 min 3 sec) 
Heartbeat CPU 0 instructions: 80000002 cycles: 31430085 heartbeat IPC: 2.58604 cumulative IPC: 2.54533 (Simulation time: 0 hr 3 min 29 sec) 
Heartbeat CPU 0 instructions: 90000001 cycles: 35327750 heartbeat IPC: 2.56564 cumulative IPC: 2.54757 (Simulation time: 0 hr 3 min 54 sec) 
Heartbeat CPU 0 instructions: 100000001 cycles: 39260981 heartbeat IPC: 2.54244 cumulative IPC: 2.54706 (Simulation time: 0 hr 4 min 20 sec) 

Warmup complete CPU 0 instructions: 100000001 cycles: 39260981 (Simulation time: 0 hr 4 min 20 sec) 

Heartbeat CPU 0 instructions: 110000000 cycles: 49128556 heartbeat IPC: 1.01342 cumulative IPC: 1.01342 (Simulation time: 0 hr 4 min 39 sec) 
Heartbeat CPU 0 instructions: 120000002 cycles: 58850186 heartbeat IPC: 1.02863 cumulative IPC: 1.02097 (Simulation time: 0 hr 4 min 58 sec) 
Heartbeat CPU 0 instructions: 130000001 cycles: 68693648 heartbeat IPC: 1.0159 cumulative IPC: 1.01928 (Simulation time: 0 hr 5 min 16 sec) 
Heartbeat CPU 0 instructions: 140000002 cycles: 78510486 heartbeat IPC: 1.01866 cumulative IPC: 1.01912 (Simulation time: 0 hr 5 min 35 sec) 
Heartbeat CPU 0 instructions: 150000002 cycles: 88259805 heartbeat IPC: 1.02571 cumulative IPC: 1.02043 (Simulation time: 0 hr 5 min 54 sec) 
Heartbeat CPU 0 instructions: 160000001 cycles: 98063707 heartbeat IPC: 1.02 cumulative IPC: 1.02036 (Simulation time: 0 hr 6 min 12 sec) 
Heartbeat CPU 0 instructions: 170000001 cycles: 107925454 heartbeat IPC: 1.01402 cumulative IPC: 1.01945 (Simulation time: 0 hr 6 min 31 sec) 
Heartbeat CPU 0 instructions: 180000002 cycles: 117843460 heartbeat IPC: 1.00827 cumulative IPC: 1.01804 (Simulation time: 0 hr 6 min 50 sec) 
Heartbeat CPU 0 instructions: 190000003 cycles: 127778384 heartbeat IPC: 1.00655 cumulative IPC: 1.01675 (Simulation time: 0 hr 7 min 9 sec) 
Heartbeat CPU 0 instructions: 200000000 cycles: 137875490 heartbeat IPC: 0.990382 cumulative IPC: 1.01405 (Simulation time: 0 hr 7 min 28 sec) 
Heartbeat CPU 0 instructions: 210000002 cycles: 147715989 heartbeat IPC: 1.01621 cumulative IPC: 1.01425 (Simulation time: 0 hr 7 min 47 sec) 
Heartbeat CPU 0 instructions: 220000000 cycles: 157740794 heartbeat IPC: 0.997525 cumulative IPC: 1.01283 (Simulation time: 0 hr 8 min 6 sec) 
Heartbeat CPU 0 instructions: 230000003 cycles: 167730768 heartbeat IPC: 1.001 cumulative IPC: 1.01191 (Simulation time: 0 hr 8 min 25 sec) 
Heartbeat CPU 0 instructions: 240000000 cycles: 177548582 heartbeat IPC: 1.01856 cumulative IPC: 1.01238 (Simulation time: 0 hr 8 min 44 sec) 
Heartbeat CPU 0 instructions: 250000000 cycles: 187313557 heartbeat IPC: 1.02407 cumulative IPC: 1.01315 (Simulation time: 0 hr 9 min 3 sec) 
Heartbeat CPU 0 instructions: 260000000 cycles: 197084951 heartbeat IPC: 1.0234 cumulative IPC: 1.01379 (Simulation time: 0 hr 9 min 22 sec) 
Heartbeat CPU 0 instructions: 270000003 cycles: 206869636 heartbeat IPC: 1.02201 cumulative IPC: 1.01427 (Simulation time: 0 hr 9 min 41 sec) 
Heartbeat CPU 0 instructions: 280000002 cycles: 216815813 heartbeat IPC: 1.00541 cumulative IPC: 1.01377 (Simulation time: 0 hr 10 min 0 sec) 
Heartbeat CPU 0 instructions: 290000000 cycles: 226714189 heartbeat IPC: 1.01027 cumulative IPC: 1.01359 (Simulation time: 0 hr 10 min 20 sec) 
Heartbeat CPU 0 instructions: 300000002 cycles: 236564680 heartbeat IPC: 1.01518 cumulative IPC: 1.01367 (Simulation time: 0 hr 10 min 38 sec) 
Heartbeat CPU 0 instructions: 310000000 cycles: 246448318 heartbeat IPC: 1.01177 cumulative IPC: 1.01358 (Simulation time: 0 hr 10 min 57 sec) 
Heartbeat CPU 0 instructions: 320000000 cycles: 256493686 heartbeat IPC: 0.995484 cumulative IPC: 1.01274 (Simulation time: 0 hr 11 min 16 sec) 
Heartbeat CPU 0 instructions: 330000000 cycles: 266585576 heartbeat IPC: 0.990895 cumulative IPC: 1.01177 (Simulation time: 0 hr 11 min 35 sec) 
Heartbeat CPU 0 instructions: 340000003 cycles: 276470081 heartbeat IPC: 1.01168 cumulative IPC: 1.01177 (Simulation time: 0 hr 11 min 54 sec) 
Heartbeat CPU 0 instructions: 350000000 cycles: 286366610 heartbeat IPC: 1.01046 cumulative IPC: 1.01171 (Simulation time: 0 hr 12 min 13 sec) 
Heartbeat CPU 0 instructions: 360000003 cycles: 296234663 heartbeat IPC: 1.01337 cumulative IPC: 1.01178 (Simulation time: 0 hr 12 min 32 sec) 
Heartbeat CPU 0 instructions: 370000000 cycles: 306137501 heartbeat IPC: 1.00981 cumulative IPC: 1.0117 (Simulation time: 0 hr 12 min 51 sec) 
Heartbeat CPU 0 instructions: 380000003 cycles: 316020865 heartbeat IPC: 1.0118 cumulative IPC: 1.01171 (Simulation time: 0 hr 13 min 10 sec) 
Heartbeat CPU 0 instructions: 390000002 cycles: 325949671 heartbeat IPC: 1.00717 cumulative IPC: 1.01155 (Simulation time: 0 hr 13 min 29 sec) 
Heartbeat CPU 0 instructions: 400000000 cycles: 335927740 heartbeat IPC: 1.0022 cumulative IPC: 1.01124 (Simulation time: 0 hr 13 min 48 sec) 
Heartbeat CPU 0 instructions: 410000001 cycles: 346121900 heartbeat IPC: 0.980954 cumulative IPC: 1.01023 (Simulation time: 0 hr 14 min 7 sec) 
Heartbeat CPU 0 instructions: 420000003 cycles: 356089303 heartbeat IPC: 1.00327 cumulative IPC: 1.01001 (Simulation time: 0 hr 14 min 26 sec) 
Heartbeat CPU 0 instructions: 430000001 cycles: 366129689 heartbeat IPC: 0.995977 cumulative IPC: 1.00958 (Simulation time: 0 hr 14 min 45 sec) 
Heartbeat CPU 0 instructions: 440000000 cycles: 376086396 heartbeat IPC: 1.00435 cumulative IPC: 1.00943 (Simulation time: 0 hr 15 min 4 sec) 
Heartbeat CPU 0 instructions: 450000003 cycles: 386173168 heartbeat IPC: 0.991398 cumulative IPC: 1.0089 (Simulation time: 0 hr 15 min 23 sec) 
Heartbeat CPU 0 instructions: 460000003 cycles: 396272156 heartbeat IPC: 0.990198 cumulative IPC: 1.00837 (Simulation time: 0 hr 15 min 42 sec) 
Heartbeat CPU 0 instructions: 470000000 cycles: 406395835 heartbeat IPC: 0.987783 cumulative IPC: 1.0078 (Simulation time: 0 hr 16 min 1 sec) 
Heartbeat CPU 0 instructions: 480000001 cycles: 416495283 heartbeat IPC: 0.990153 cumulative IPC: 1.00733 (Simulation time: 0 hr 16 min 20 sec) 
Heartbeat CPU 0 instructions: 490000000 cycles: 426288422 heartbeat IPC: 1.02112 cumulative IPC: 1.00768 (Simulation time: 0 hr 16 min 39 sec) 
Heartbeat CPU 0 instructions: 500000001 cycles: 436049986 heartbeat IPC: 1.02443 cumulative IPC: 1.00809 (Simulation time: 0 hr 16 min 58 sec) 
Heartbeat CPU 0 instructions: 510000000 cycles: 445739421 heartbeat IPC: 1.03205 cumulative IPC: 1.00866 (Simulation time: 0 hr 17 min 17 sec) 
Heartbeat CPU 0 instructions: 520000001 cycles: 455446587 heartbeat IPC: 1.03017 cumulative IPC: 1.00917 (Simulation time: 0 hr 17 min 36 sec) 
Heartbeat CPU 0 instructions: 530000001 cycles: 465264797 heartbeat IPC: 1.01852 cumulative IPC: 1.00938 (Simulation time: 0 hr 17 min 55 sec) 
Heartbeat CPU 0 instructions: 540000003 cycles: 475080765 heartbeat IPC: 1.01875 cumulative IPC: 1.00959 (Simulation time: 0 hr 18 min 14 sec) 
Heartbeat CPU 0 instructions: 550000000 cycles: 484831882 heartbeat IPC: 1.02552 cumulative IPC: 1.00994 (Simulation time: 0 hr 18 min 33 sec) 
Heartbeat CPU 0 instructions: 560000002 cycles: 494542093 heartbeat IPC: 1.02984 cumulative IPC: 1.01036 (Simulation time: 0 hr 18 min 52 sec) 
Heartbeat CPU 0 instructions: 570000000 cycles: 504153099 heartbeat IPC: 1.04047 cumulative IPC: 1.01099 (Simulation time: 0 hr 19 min 11 sec) 
Heartbeat CPU 0 instructions: 580000000 cycles: 513891934 heartbeat IPC: 1.02682 cumulative IPC: 1.01131 (Simulation time: 0 hr 19 min 30 sec) 
Heartbeat CPU 0 instructions: 590000000 cycles: 523747307 heartbeat IPC: 1.01467 cumulative IPC: 1.01138 (Simulation time: 0 hr 19 min 49 sec) 
Heartbeat CPU 0 instructions: 600000000 cycles: 533502534 heartbeat IPC: 1.02509 cumulative IPC: 1.01165 (Simulation time: 0 hr 20 min 8 sec) 
Heartbeat CPU 0 instructions: 610000002 cycles: 543387042 heartbeat IPC: 1.01168 cumulative IPC: 1.01165 (Simulation time: 0 hr 20 min 27 sec) 
Heartbeat CPU 0 instructions: 620000001 cycles: 553198071 heartbeat IPC: 1.01926 cumulative IPC: 1.0118 (Simulation time: 0 hr 20 min 46 sec) 
Heartbeat CPU 0 instructions: 630000000 cycles: 562963657 heartbeat IPC: 1.024 cumulative IPC: 1.01202 (Simulation time: 0 hr 21 min 5 sec) 
Heartbeat CPU 0 instructions: 640000001 cycles: 572711709 heartbeat IPC: 1.02585 cumulative IPC: 1.01228 (Simulation time: 0 hr 21 min 24 sec) 
Heartbeat CPU 0 instructions: 650000000 cycles: 582459271 heartbeat IPC: 1.0259 cumulative IPC: 1.01252 (Simulation time: 0 hr 21 min 42 sec) 
Heartbeat CPU 0 instructions: 660000000 cycles: 592169125 heartbeat IPC: 1.02988 cumulative IPC: 1.01283 (Simulation time: 0 hr 22 min 2 sec) 
Heartbeat CPU 0 instructions: 670000000 cycles: 601749551 heartbeat IPC: 1.04379 cumulative IPC: 1.01335 (Simulation time: 0 hr 22 min 21 sec) 
Heartbeat CPU 0 instructions: 680000002 cycles: 611472727 heartbeat IPC: 1.02847 cumulative IPC: 1.01361 (Simulation time: 0 hr 22 min 40 sec) 
Heartbeat CPU 0 instructions: 690000001 cycles: 621336455 heartbeat IPC: 1.01382 cumulative IPC: 1.01361 (Simulation time: 0 hr 22 min 58 sec) 
Heartbeat CPU 0 instructions: 700000000 cycles: 631257462 heartbeat IPC: 1.00796 cumulative IPC: 1.01352 (Simulation time: 0 hr 23 min 17 sec) 
Heartbeat CPU 0 instructions: 710000001 cycles: 640944890 heartbeat IPC: 1.03227 cumulative IPC: 1.01382 (Simulation time: 0 hr 23 min 36 sec) 
Heartbeat CPU 0 instructions: 720000000 cycles: 650656340 heartbeat IPC: 1.02971 cumulative IPC: 1.01407 (Simulation time: 0 hr 23 min 55 sec) 
Heartbeat CPU 0 instructions: 730000000 cycles: 660356448 heartbeat IPC: 1.03092 cumulative IPC: 1.01434 (Simulation time: 0 hr 24 min 14 sec) 
Heartbeat CPU 0 instructions: 740000000 cycles: 670091796 heartbeat IPC: 1.02718 cumulative IPC: 1.01454 (Simulation time: 0 hr 24 min 33 sec) 
Heartbeat CPU 0 instructions: 750000000 cycles: 679892009 heartbeat IPC: 1.02039 cumulative IPC: 1.01462 (Simulation time: 0 hr 24 min 52 sec) 
Heartbeat CPU 0 instructions: 760000001 cycles: 689646910 heartbeat IPC: 1.02513 cumulative IPC: 1.01478 (Simulation time: 0 hr 25 min 11 sec) 
Heartbeat CPU 0 instructions: 770000000 cycles: 699554485 heartbeat IPC: 1.00933 cumulative IPC: 1.0147 (Simulation time: 0 hr 25 min 30 sec) 
Heartbeat CPU 0 instructions: 780000000 cycles: 709543181 heartbeat IPC: 1.00113 cumulative IPC: 1.0145 (Simulation time: 0 hr 25 min 49 sec) 
Heartbeat CPU 0 instructions: 790000001 cycles: 719436598 heartbeat IPC: 1.01077 cumulative IPC: 1.01444 (Simulation time: 0 hr 26 min 8 sec) 
Heartbeat CPU 0 instructions: 800000001 cycles: 729248428 heartbeat IPC: 1.01918 cumulative IPC: 1.01451 (Simulation time: 0 hr 26 min 27 sec) 
Heartbeat CPU 0 instructions: 810000000 cycles: 739003934 heartbeat IPC: 1.02506 cumulative IPC: 1.01466 (Simulation time: 0 hr 26 min 46 sec) 
Heartbeat CPU 0 instructions: 820000000 cycles: 748688930 heartbeat IPC: 1.03252 cumulative IPC: 1.0149 (Simulation time: 0 hr 27 min 4 sec) 
Heartbeat CPU 0 instructions: 830000000 cycles: 758285630 heartbeat IPC: 1.04202 cumulative IPC: 1.01526 (Simulation time: 0 hr 27 min 24 sec) 
Heartbeat CPU 0 instructions: 840000000 cycles: 767978349 heartbeat IPC: 1.0317 cumulative IPC: 1.01548 (Simulation time: 0 hr 27 min 43 sec) 
Heartbeat CPU 0 instructions: 850000000 cycles: 777882462 heartbeat IPC: 1.00968 cumulative IPC: 1.01541 (Simulation time: 0 hr 28 min 2 sec) 
Heartbeat CPU 0 instructions: 860000000 cycles: 787789470 heartbeat IPC: 1.00939 cumulative IPC: 1.01533 (Simulation time: 0 hr 28 min 21 sec) 
Heartbeat CPU 0 instructions: 870000000 cycles: 797563401 heartbeat IPC: 1.02313 cumulative IPC: 1.01543 (Simulation time: 0 hr 28 min 40 sec) 
Heartbeat CPU 0 instructions: 880000000 cycles: 807439741 heartbeat IPC: 1.01252 cumulative IPC: 1.01539 (Simulation time: 0 hr 29 min 0 sec) 
Heartbeat CPU 0 instructions: 890000003 cycles: 817377911 heartbeat IPC: 1.00622 cumulative IPC: 1.01527 (Simulation time: 0 hr 29 min 19 sec) 
Heartbeat CPU 0 instructions: 900000000 cycles: 827306863 heartbeat IPC: 1.00716 cumulative IPC: 1.01517 (Simulation time: 0 hr 29 min 38 sec) 
Heartbeat CPU 0 instructions: 910000002 cycles: 837268706 heartbeat IPC: 1.00383 cumulative IPC: 1.01503 (Simulation time: 0 hr 29 min 57 sec) 
Heartbeat CPU 0 instructions: 920000002 cycles: 847196484 heartbeat IPC: 1.00727 cumulative IPC: 1.01493 (Simulation time: 0 hr 30 min 16 sec) 
Heartbeat CPU 0 instructions: 930000001 cycles: 857034353 heartbeat IPC: 1.01648 cumulative IPC: 1.01495 (Simulation time: 0 hr 30 min 36 sec) 
Heartbeat CPU 0 instructions: 940000000 cycles: 866933394 heartbeat IPC: 1.0102 cumulative IPC: 1.01489 (Simulation time: 0 hr 30 min 55 sec) 
Heartbeat CPU 0 instructions: 950000000 cycles: 876815597 heartbeat IPC: 1.01192 cumulative IPC: 1.01486 (Simulation time: 0 hr 31 min 14 sec) 
Heartbeat CPU 0 instructions: 960000001 cycles: 886657873 heartbeat IPC: 1.01603 cumulative IPC: 1.01487 (Simulation time: 0 hr 31 min 34 sec) 
Heartbeat CPU 0 instructions: 970000002 cycles: 896488940 heartbeat IPC: 1.01718 cumulative IPC: 1.0149 (Simulation time: 0 hr 31 min 53 sec) 
Heartbeat CPU 0 instructions: 980000000 cycles: 906329834 heartbeat IPC: 1.01617 cumulative IPC: 1.01491 (Simulation time: 0 hr 32 min 12 sec) 
Heartbeat CPU 0 instructions: 990000000 cycles: 916080977 heartbeat IPC: 1.02552 cumulative IPC: 1.01503 (Simulation time: 0 hr 32 min 31 sec) 
Heartbeat CPU 0 instructions: 1000000002 cycles: 926178048 heartbeat IPC: 0.990386 cumulative IPC: 1.01475 (Simulation time: 0 hr 32 min 50 sec) 
Heartbeat CPU 0 instructions: 1010000003 cycles: 935964435 heartbeat IPC: 1.02183 cumulative IPC: 1.01483 (Simulation time: 0 hr 33 min 10 sec) 
Heartbeat CPU 0 instructions: 1020000001 cycles: 945840649 heartbeat IPC: 1.01253 cumulative IPC: 1.0148 (Simulation time: 0 hr 33 min 29 sec) 
Heartbeat CPU 0 instructions: 1030000001 cycles: 955790603 heartbeat IPC: 1.00503 cumulative IPC: 1.0147 (Simulation time: 0 hr 33 min 48 sec) 
Heartbeat CPU 0 instructions: 1040000002 cycles: 965789573 heartbeat IPC: 1.0001 cumulative IPC: 1.01454 (Simulation time: 0 hr 34 min 8 sec) 
Heartbeat CPU 0 instructions: 1050000002 cycles: 975721950 heartbeat IPC: 1.00681 cumulative IPC: 1.01446 (Simulation time: 0 hr 34 min 27 sec) 
Heartbeat CPU 0 instructions: 1060000000 cycles: 985780548 heartbeat IPC: 0.994174 cumulative IPC: 1.01424 (Simulation time: 0 hr 34 min 46 sec) 
Heartbeat CPU 0 instructions: 1070000000 cycles: 995817510 heartbeat IPC: 0.996317 cumulative IPC: 1.01405 (Simulation time: 0 hr 35 min 5 sec) 
Heartbeat CPU 0 instructions: 1080000003 cycles: 1005837510 heartbeat IPC: 0.998004 cumulative IPC: 1.01389 (Simulation time: 0 hr 35 min 24 sec) 
Heartbeat CPU 0 instructions: 1090000001 cycles: 1015772527 heartbeat IPC: 1.00654 cumulative IPC: 1.01381 (Simulation time: 0 hr 35 min 43 sec) 
Heartbeat CPU 0 instructions: 1100000000 cycles: 1025604847 heartbeat IPC: 1.01705 cumulative IPC: 1.01385 (Simulation time: 0 hr 36 min 3 sec) 
Finished CPU 0 instructions: 1000000000 cycles: 986343867 cumulative IPC: 1.01385 (Simulation time: 0 hr 36 min 3 sec) 

ChampSim completed all CPUs

Region of Interest Statistics

CPU 0 cumulative IPC: 1.01385 instructions: 1000000000 cycles: 986343867
L1D TOTAL     ACCESS:  298881066  HIT:  297535368  MISS:    1345698
L1D LOAD      ACCESS:  182738423  HIT:  181803000  MISS:     935423
L1D RFO       ACCESS:  116142643  HIT:  115732368  MISS:     410275
L1D PREFETCH  ACCESS:          0  HIT:          0  MISS:          0
L1D WRITEBACK ACCESS:          0  HIT:          0  MISS:          0
L1D PREFETCH  REQUESTED:          0  ISSUED:          0  USEFUL:          0  USELESS:          0
L1D AVERAGE MISS LATENCY: 53.2396 cycles
L1I TOTAL     ACCESS:  174283970  HIT:  173328304  MISS:     955666
L1I LOAD      ACCESS:  174283970  HIT:  173328304  MISS:     955666
L1I RFO       ACCESS:          0  HIT:          0  MISS:          0
L1I PREFETCH  ACCESS:          0  HIT:          0  MISS:          0
L1I WRITEBACK ACCESS:          0  HIT:          0  MISS:          0
L1I PREFETCH  REQUESTED:          0  ISSUED:          0  USEFUL:          0  USELESS:          0
L1I AVERAGE MISS LATENCY: 13.1368 cycles
L2C TOTAL     ACCESS:    2969357  HIT:    2662047  MISS:     307310
L2C LOAD      ACCESS:    1891054  HIT:    1601676  MISS:     289378
L2C RFO       ACCESS:     410212  HIT:     392958  MISS:      17254
L2C PREFETCH  ACCESS:          0  HIT:          0  MISS:          0
L2C WRITEBACK ACCESS:     668091  HIT:     667413  MISS:        678
L2C PREFETCH  REQUESTED:          0  ISSUED:          0  USEFUL:          0  USELESS:          0
L2C AVERAGE MISS LATENCY: 179.014 cycles
LLC TOTAL     ACCESS:     514864  HIT:     116632  MISS:     398232
LLC LOAD      ACCESS:     289378  HIT:      25480  MISS:     263898
LLC RFO       ACCESS:      17254  HIT:      14947  MISS:       2307
LLC PREFETCH  ACCESS:          0  HIT:          0  MISS:          0
LLC WRITEBACK ACCESS:     208232  HIT:      76205  MISS:     132027
LLC PREFETCH  REQUESTED:          0  ISSUED:          0  USEFUL:          0  USELESS:          0
LLC AVERAGE MISS LATENCY: 107.255 cycles
Major fault: 0 Minor fault: 161415
==============================
Perceptron RRIP Stats:
   Num Updates:          533899
   Num Primary Trains:   80193
   Num Secondary Trains: 79928
==============================
primary_perceptron #0: 3 -1 1 -3 1 1 -1 -3 -1 1 -1 -3 -1 -1 -3 -13 
secondary_perceptron #0: 2 0 0 -4 0 4 -2 -2 4 2 -4 -4 2 -2 -2 2 0 0 0 -2 -16 


DRAM Statistics
 CHANNEL 0
 RQ ROW_BUFFER_HIT:      63390  ROW_BUFFER_MISS:     202815
 DBUS_CONGESTED:      48799
 WQ ROW_BUFFER_HIT:       4771  ROW_BUFFER_MISS:     171978  FULL:          0

 AVG_CONGESTED_CYCLE: 6

CPU 0 Branch Prediction Accuracy: 90.7181% MPKI: 13.7272 Average ROB Occupancy at Mispredict: 30.441

Branch types
NOT_BRANCH: 852108097 85.2108%
BRANCH_DIRECT_JUMP: 8658948 0.865895%
BRANCH_INDIRECT: 862270 0.086227%
BRANCH_CONDITIONAL: 98627220 9.86272%
BRANCH_DIRECT_CALL: 19871562 1.98716%
BRANCH_INDIRECT_CALL: 0 0%
BRANCH_RETURN: 19871559 1.98716%
BRANCH_OTHER: 0 0%

