
*** ChampSim Multicore Out-of-Order Simulator ***

Warmup Instructions: 100000000
Simulation Instructions: 1000000000
Number of CPUs: 1
LLC sets: 2048
LLC ways: 16
Off-chip DRAM Size: 4096 MB Channels: 1 Width: 64-bit Data Rate: 3200 MT/s

CPU 0 runs /scratch/user/kevin.weston/dpc3-traces/631.champsimtrace.xz
CPU 0 Bimodal branch predictor
Initialize DRRIP state
Assign rand_sets[0]: 454  LLC: 2048
rand_sets[0]: 454
Assign rand_sets[1]: 1662  LLC: 2048
rand_sets[1]: 1662
Assign rand_sets[2]: 1921  LLC: 2048
rand_sets[2]: 1921
Assign rand_sets[3]: 1131  LLC: 2048
rand_sets[3]: 1131
Assign rand_sets[4]: 331  LLC: 2048
rand_sets[4]: 331
Assign rand_sets[5]: 1531  LLC: 2048
rand_sets[5]: 1531
Assign rand_sets[6]: 482  LLC: 2048
rand_sets[6]: 482
Assign rand_sets[7]: 1275  LLC: 2048
rand_sets[7]: 1275
Assign rand_sets[8]: 1876  LLC: 2048
rand_sets[8]: 1876
Assign rand_sets[9]: 2038  LLC: 2048
rand_sets[9]: 2038
Assign rand_sets[10]: 701  LLC: 2048
rand_sets[10]: 701
Assign rand_sets[11]: 479  LLC: 2048
rand_sets[11]: 479
Assign rand_sets[12]: 892  LLC: 2048
rand_sets[12]: 892
Assign rand_sets[13]: 1820  LLC: 2048
rand_sets[13]: 1820
Assign rand_sets[14]: 1505  LLC: 2048
rand_sets[14]: 1505
Assign rand_sets[15]: 1159  LLC: 2048
rand_sets[15]: 1159
Assign rand_sets[16]: 513  LLC: 2048
rand_sets[16]: 513
Assign rand_sets[17]: 703  LLC: 2048
rand_sets[17]: 703
Assign rand_sets[18]: 561  LLC: 2048
rand_sets[18]: 561
Assign rand_sets[19]: 990  LLC: 2048
rand_sets[19]: 990
Assign rand_sets[20]: 342  LLC: 2048
rand_sets[20]: 342
Assign rand_sets[21]: 882  LLC: 2048
rand_sets[21]: 882
Assign rand_sets[22]: 15  LLC: 2048
rand_sets[22]: 15
Assign rand_sets[23]: 71  LLC: 2048
rand_sets[23]: 71
Assign rand_sets[24]: 1127  LLC: 2048
rand_sets[24]: 1127
Assign rand_sets[25]: 1382  LLC: 2048
rand_sets[25]: 1382
Assign rand_sets[26]: 647  LLC: 2048
rand_sets[26]: 647
Assign rand_sets[27]: 857  LLC: 2048
rand_sets[27]: 857
Assign rand_sets[28]: 1450  LLC: 2048
rand_sets[28]: 1450
Assign rand_sets[29]: 1160  LLC: 2048
rand_sets[29]: 1160
Assign rand_sets[30]: 1852  LLC: 2048
rand_sets[30]: 1852
Assign rand_sets[31]: 1881  LLC: 2048
rand_sets[31]: 1881
Assign rand_sets[32]: 1770  LLC: 2048
rand_sets[32]: 1770
Assign rand_sets[33]: 1622  LLC: 2048
rand_sets[33]: 1622
Assign rand_sets[34]: 275  LLC: 2048
rand_sets[34]: 275
Assign rand_sets[35]: 635  LLC: 2048
rand_sets[35]: 635
Assign rand_sets[36]: 466  LLC: 2048
rand_sets[36]: 466
Assign rand_sets[37]: 1413  LLC: 2048
rand_sets[37]: 1413
Assign rand_sets[38]: 417  LLC: 2048
rand_sets[38]: 417
Assign rand_sets[39]: 472  LLC: 2048
rand_sets[39]: 472
Assign rand_sets[40]: 1340  LLC: 2048
rand_sets[40]: 1340
Assign rand_sets[41]: 852  LLC: 2048
rand_sets[41]: 852
Assign rand_sets[42]: 1365  LLC: 2048
rand_sets[42]: 1365
Assign rand_sets[43]: 47  LLC: 2048
rand_sets[43]: 47
Assign rand_sets[44]: 823  LLC: 2048
rand_sets[44]: 823
Assign rand_sets[45]: 686  LLC: 2048
rand_sets[45]: 686
Assign rand_sets[46]: 1637  LLC: 2048
rand_sets[46]: 1637
Assign rand_sets[47]: 1115  LLC: 2048
rand_sets[47]: 1115
Assign rand_sets[48]: 986  LLC: 2048
rand_sets[48]: 986
Assign rand_sets[49]: 258  LLC: 2048
rand_sets[49]: 258
Assign rand_sets[50]: 633  LLC: 2048
rand_sets[50]: 633
Assign rand_sets[51]: 920  LLC: 2048
rand_sets[51]: 920
Assign rand_sets[52]: 204  LLC: 2048
rand_sets[52]: 204
Assign rand_sets[53]: 227  LLC: 2048
rand_sets[53]: 227
Assign rand_sets[54]: 1818  LLC: 2048
rand_sets[54]: 1818
Assign rand_sets[55]: 886  LLC: 2048
rand_sets[55]: 886
Assign rand_sets[56]: 1422  LLC: 2048
rand_sets[56]: 1422
Assign rand_sets[57]: 607  LLC: 2048
rand_sets[57]: 607
Assign rand_sets[58]: 217  LLC: 2048
rand_sets[58]: 217
Assign rand_sets[59]: 1945  LLC: 2048
rand_sets[59]: 1945
Assign rand_sets[60]: 143  LLC: 2048
rand_sets[60]: 143
Assign rand_sets[61]: 1311  LLC: 2048
rand_sets[61]: 1311
Assign rand_sets[62]: 319  LLC: 2048
rand_sets[62]: 319
Assign rand_sets[63]: 1846  LLC: 2048
rand_sets[63]: 1846
Heartbeat CPU 0 instructions: 10000000 cycles: 3950839 heartbeat IPC: 2.53111 cumulative IPC: 2.53111 (Simulation time: 0 hr 0 min 24 sec) 
Heartbeat CPU 0 instructions: 20000000 cycles: 8026461 heartbeat IPC: 2.45361 cumulative IPC: 2.49176 (Simulation time: 0 hr 0 min 48 sec) 
Heartbeat CPU 0 instructions: 30000000 cycles: 11977411 heartbeat IPC: 2.53104 cumulative IPC: 2.50471 (Simulation time: 0 hr 1 min 12 sec) 
Heartbeat CPU 0 instructions: 40000001 cycles: 15930250 heartbeat IPC: 2.52983 cumulative IPC: 2.51095 (Simulation time: 0 hr 1 min 35 sec) 
Heartbeat CPU 0 instructions: 50000001 cycles: 19880870 heartbeat IPC: 2.53125 cumulative IPC: 2.51498 (Simulation time: 0 hr 1 min 59 sec) 
Heartbeat CPU 0 instructions: 60000001 cycles: 23739184 heartbeat IPC: 2.59181 cumulative IPC: 2.52747 (Simulation time: 0 hr 2 min 23 sec) 
Heartbeat CPU 0 instructions: 70000001 cycles: 27563183 heartbeat IPC: 2.61506 cumulative IPC: 2.53962 (Simulation time: 0 hr 2 min 47 sec) 
Heartbeat CPU 0 instructions: 80000002 cycles: 31430099 heartbeat IPC: 2.58604 cumulative IPC: 2.54533 (Simulation time: 0 hr 3 min 11 sec) 
Heartbeat CPU 0 instructions: 90000001 cycles: 35327751 heartbeat IPC: 2.56565 cumulative IPC: 2.54757 (Simulation time: 0 hr 3 min 35 sec) 
Heartbeat CPU 0 instructions: 100000001 cycles: 39260988 heartbeat IPC: 2.54244 cumulative IPC: 2.54706 (Simulation time: 0 hr 3 min 59 sec) 

Warmup complete CPU 0 instructions: 100000001 cycles: 39260988 (Simulation time: 0 hr 3 min 59 sec) 

Heartbeat CPU 0 instructions: 110000000 cycles: 49136480 heartbeat IPC: 1.01261 cumulative IPC: 1.01261 (Simulation time: 0 hr 4 min 15 sec) 
Heartbeat CPU 0 instructions: 120000002 cycles: 58869885 heartbeat IPC: 1.02739 cumulative IPC: 1.01995 (Simulation time: 0 hr 4 min 32 sec) 
Heartbeat CPU 0 instructions: 130000001 cycles: 68728486 heartbeat IPC: 1.01434 cumulative IPC: 1.01807 (Simulation time: 0 hr 4 min 49 sec) 
Heartbeat CPU 0 instructions: 140000002 cycles: 78562705 heartbeat IPC: 1.01686 cumulative IPC: 1.01777 (Simulation time: 0 hr 5 min 6 sec) 
Heartbeat CPU 0 instructions: 150000002 cycles: 88304624 heartbeat IPC: 1.02649 cumulative IPC: 1.0195 (Simulation time: 0 hr 5 min 22 sec) 
Heartbeat CPU 0 instructions: 160000001 cycles: 98118196 heartbeat IPC: 1.019 cumulative IPC: 1.01942 (Simulation time: 0 hr 5 min 39 sec) 
Heartbeat CPU 0 instructions: 170000001 cycles: 107980142 heartbeat IPC: 1.014 cumulative IPC: 1.01864 (Simulation time: 0 hr 5 min 56 sec) 
Heartbeat CPU 0 instructions: 180000002 cycles: 117901602 heartbeat IPC: 1.00792 cumulative IPC: 1.01729 (Simulation time: 0 hr 6 min 13 sec) 
Heartbeat CPU 0 instructions: 190000003 cycles: 127843879 heartbeat IPC: 1.00581 cumulative IPC: 1.016 (Simulation time: 0 hr 6 min 30 sec) 
Heartbeat CPU 0 instructions: 200000000 cycles: 137947155 heartbeat IPC: 0.989778 cumulative IPC: 1.01331 (Simulation time: 0 hr 6 min 47 sec) 
Heartbeat CPU 0 instructions: 210000002 cycles: 147793493 heartbeat IPC: 1.01561 cumulative IPC: 1.01352 (Simulation time: 0 hr 7 min 4 sec) 
Heartbeat CPU 0 instructions: 220000000 cycles: 157822244 heartbeat IPC: 0.997133 cumulative IPC: 1.01214 (Simulation time: 0 hr 7 min 21 sec) 
Heartbeat CPU 0 instructions: 230000003 cycles: 167818415 heartbeat IPC: 1.00038 cumulative IPC: 1.01122 (Simulation time: 0 hr 7 min 38 sec) 
Heartbeat CPU 0 instructions: 240000000 cycles: 177665169 heartbeat IPC: 1.01556 cumulative IPC: 1.01153 (Simulation time: 0 hr 7 min 55 sec) 
Heartbeat CPU 0 instructions: 250000000 cycles: 187456048 heartbeat IPC: 1.02136 cumulative IPC: 1.01218 (Simulation time: 0 hr 8 min 12 sec) 
Heartbeat CPU 0 instructions: 260000000 cycles: 197253467 heartbeat IPC: 1.02068 cumulative IPC: 1.01271 (Simulation time: 0 hr 8 min 29 sec) 
Heartbeat CPU 0 instructions: 270000003 cycles: 207055225 heartbeat IPC: 1.02023 cumulative IPC: 1.01315 (Simulation time: 0 hr 8 min 46 sec) 
Heartbeat CPU 0 instructions: 280000002 cycles: 217017251 heartbeat IPC: 1.00381 cumulative IPC: 1.01262 (Simulation time: 0 hr 9 min 3 sec) 
Heartbeat CPU 0 instructions: 290000000 cycles: 226941565 heartbeat IPC: 1.00763 cumulative IPC: 1.01236 (Simulation time: 0 hr 9 min 20 sec) 
Heartbeat CPU 0 instructions: 300000002 cycles: 236818417 heartbeat IPC: 1.01247 cumulative IPC: 1.01236 (Simulation time: 0 hr 9 min 37 sec) 
Heartbeat CPU 0 instructions: 310000000 cycles: 246727340 heartbeat IPC: 1.00919 cumulative IPC: 1.01221 (Simulation time: 0 hr 9 min 54 sec) 
Heartbeat CPU 0 instructions: 320000000 cycles: 256786979 heartbeat IPC: 0.994071 cumulative IPC: 1.01137 (Simulation time: 0 hr 10 min 11 sec) 
Heartbeat CPU 0 instructions: 330000000 cycles: 266890299 heartbeat IPC: 0.989774 cumulative IPC: 1.01041 (Simulation time: 0 hr 10 min 28 sec) 
Heartbeat CPU 0 instructions: 340000003 cycles: 276765545 heartbeat IPC: 1.01263 cumulative IPC: 1.01051 (Simulation time: 0 hr 10 min 45 sec) 
Heartbeat CPU 0 instructions: 350000000 cycles: 286669387 heartbeat IPC: 1.00971 cumulative IPC: 1.01048 (Simulation time: 0 hr 11 min 1 sec) 
Heartbeat CPU 0 instructions: 360000003 cycles: 296545095 heartbeat IPC: 1.01259 cumulative IPC: 1.01056 (Simulation time: 0 hr 11 min 18 sec) 
Heartbeat CPU 0 instructions: 370000000 cycles: 306438719 heartbeat IPC: 1.01075 cumulative IPC: 1.01056 (Simulation time: 0 hr 11 min 35 sec) 
Heartbeat CPU 0 instructions: 380000003 cycles: 316304572 heartbeat IPC: 1.0136 cumulative IPC: 1.01067 (Simulation time: 0 hr 11 min 52 sec) 
Heartbeat CPU 0 instructions: 390000002 cycles: 326234665 heartbeat IPC: 1.00704 cumulative IPC: 1.01055 (Simulation time: 0 hr 12 min 9 sec) 
Heartbeat CPU 0 instructions: 400000000 cycles: 336228748 heartbeat IPC: 1.00059 cumulative IPC: 1.01021 (Simulation time: 0 hr 12 min 26 sec) 
Heartbeat CPU 0 instructions: 410000001 cycles: 346436813 heartbeat IPC: 0.979618 cumulative IPC: 1.00919 (Simulation time: 0 hr 12 min 43 sec) 
Heartbeat CPU 0 instructions: 420000003 cycles: 356409187 heartbeat IPC: 1.00277 cumulative IPC: 1.00899 (Simulation time: 0 hr 13 min 0 sec) 
Heartbeat CPU 0 instructions: 430000001 cycles: 366442676 heartbeat IPC: 0.996662 cumulative IPC: 1.00861 (Simulation time: 0 hr 13 min 17 sec) 
Heartbeat CPU 0 instructions: 440000000 cycles: 376380954 heartbeat IPC: 1.00621 cumulative IPC: 1.00854 (Simulation time: 0 hr 13 min 34 sec) 
Heartbeat CPU 0 instructions: 450000003 cycles: 386416572 heartbeat IPC: 0.996451 cumulative IPC: 1.00819 (Simulation time: 0 hr 13 min 51 sec) 
Heartbeat CPU 0 instructions: 460000003 cycles: 396451959 heartbeat IPC: 0.996474 cumulative IPC: 1.00786 (Simulation time: 0 hr 14 min 8 sec) 
Heartbeat CPU 0 instructions: 470000000 cycles: 406483421 heartbeat IPC: 0.996863 cumulative IPC: 1.00756 (Simulation time: 0 hr 14 min 25 sec) 
Heartbeat CPU 0 instructions: 480000001 cycles: 416474584 heartbeat IPC: 1.00088 cumulative IPC: 1.00739 (Simulation time: 0 hr 14 min 42 sec) 
Heartbeat CPU 0 instructions: 490000000 cycles: 426251237 heartbeat IPC: 1.02284 cumulative IPC: 1.00778 (Simulation time: 0 hr 14 min 59 sec) 
Heartbeat CPU 0 instructions: 500000001 cycles: 436028706 heartbeat IPC: 1.02276 cumulative IPC: 1.00815 (Simulation time: 0 hr 15 min 16 sec) 
Heartbeat CPU 0 instructions: 510000000 cycles: 445732937 heartbeat IPC: 1.03048 cumulative IPC: 1.00868 (Simulation time: 0 hr 15 min 33 sec) 
Heartbeat CPU 0 instructions: 520000001 cycles: 455442418 heartbeat IPC: 1.02992 cumulative IPC: 1.00918 (Simulation time: 0 hr 15 min 50 sec) 
Heartbeat CPU 0 instructions: 530000001 cycles: 465268961 heartbeat IPC: 1.01765 cumulative IPC: 1.00937 (Simulation time: 0 hr 16 min 7 sec) 
Heartbeat CPU 0 instructions: 540000003 cycles: 475091337 heartbeat IPC: 1.01808 cumulative IPC: 1.00957 (Simulation time: 0 hr 16 min 24 sec) 
Heartbeat CPU 0 instructions: 550000000 cycles: 484850511 heartbeat IPC: 1.02468 cumulative IPC: 1.0099 (Simulation time: 0 hr 16 min 41 sec) 
Heartbeat CPU 0 instructions: 560000002 cycles: 494532489 heartbeat IPC: 1.03285 cumulative IPC: 1.01039 (Simulation time: 0 hr 16 min 58 sec) 
Heartbeat CPU 0 instructions: 570000000 cycles: 504148847 heartbeat IPC: 1.03989 cumulative IPC: 1.011 (Simulation time: 0 hr 17 min 15 sec) 
Heartbeat CPU 0 instructions: 580000000 cycles: 513878116 heartbeat IPC: 1.02783 cumulative IPC: 1.01134 (Simulation time: 0 hr 17 min 32 sec) 
Heartbeat CPU 0 instructions: 590000000 cycles: 523741389 heartbeat IPC: 1.01386 cumulative IPC: 1.01139 (Simulation time: 0 hr 17 min 49 sec) 
Heartbeat CPU 0 instructions: 600000000 cycles: 533502102 heartbeat IPC: 1.02452 cumulative IPC: 1.01165 (Simulation time: 0 hr 18 min 6 sec) 
Heartbeat CPU 0 instructions: 610000002 cycles: 543399070 heartbeat IPC: 1.01041 cumulative IPC: 1.01163 (Simulation time: 0 hr 18 min 22 sec) 
Heartbeat CPU 0 instructions: 620000001 cycles: 553213877 heartbeat IPC: 1.01887 cumulative IPC: 1.01177 (Simulation time: 0 hr 18 min 39 sec) 
Heartbeat CPU 0 instructions: 630000000 cycles: 562988188 heartbeat IPC: 1.02309 cumulative IPC: 1.01198 (Simulation time: 0 hr 18 min 56 sec) 
Heartbeat CPU 0 instructions: 640000001 cycles: 572744353 heartbeat IPC: 1.02499 cumulative IPC: 1.01222 (Simulation time: 0 hr 19 min 13 sec) 
Heartbeat CPU 0 instructions: 650000000 cycles: 582510491 heartbeat IPC: 1.02395 cumulative IPC: 1.01243 (Simulation time: 0 hr 19 min 30 sec) 
Heartbeat CPU 0 instructions: 660000000 cycles: 592224633 heartbeat IPC: 1.02943 cumulative IPC: 1.01272 (Simulation time: 0 hr 19 min 47 sec) 
Heartbeat CPU 0 instructions: 670000000 cycles: 601811383 heartbeat IPC: 1.04311 cumulative IPC: 1.01324 (Simulation time: 0 hr 20 min 4 sec) 
Heartbeat CPU 0 instructions: 680000002 cycles: 611544406 heartbeat IPC: 1.02743 cumulative IPC: 1.01348 (Simulation time: 0 hr 20 min 21 sec) 
Heartbeat CPU 0 instructions: 690000001 cycles: 621414064 heartbeat IPC: 1.01321 cumulative IPC: 1.01348 (Simulation time: 0 hr 20 min 38 sec) 
Heartbeat CPU 0 instructions: 700000000 cycles: 631341603 heartbeat IPC: 1.0073 cumulative IPC: 1.01338 (Simulation time: 0 hr 20 min 55 sec) 
Heartbeat CPU 0 instructions: 710000001 cycles: 641039073 heartbeat IPC: 1.0312 cumulative IPC: 1.01366 (Simulation time: 0 hr 21 min 12 sec) 
Heartbeat CPU 0 instructions: 720000000 cycles: 650756703 heartbeat IPC: 1.02906 cumulative IPC: 1.01391 (Simulation time: 0 hr 21 min 29 sec) 
Heartbeat CPU 0 instructions: 730000000 cycles: 660462078 heartbeat IPC: 1.03036 cumulative IPC: 1.01416 (Simulation time: 0 hr 21 min 46 sec) 
Heartbeat CPU 0 instructions: 740000000 cycles: 670208679 heartbeat IPC: 1.026 cumulative IPC: 1.01435 (Simulation time: 0 hr 22 min 3 sec) 
Heartbeat CPU 0 instructions: 750000000 cycles: 680026553 heartbeat IPC: 1.01855 cumulative IPC: 1.01441 (Simulation time: 0 hr 22 min 20 sec) 
Heartbeat CPU 0 instructions: 760000001 cycles: 689792699 heartbeat IPC: 1.02395 cumulative IPC: 1.01455 (Simulation time: 0 hr 22 min 37 sec) 
Heartbeat CPU 0 instructions: 770000000 cycles: 699709111 heartbeat IPC: 1.00843 cumulative IPC: 1.01446 (Simulation time: 0 hr 22 min 53 sec) 
Heartbeat CPU 0 instructions: 780000000 cycles: 709707882 heartbeat IPC: 1.00012 cumulative IPC: 1.01425 (Simulation time: 0 hr 23 min 10 sec) 
Heartbeat CPU 0 instructions: 790000001 cycles: 719607486 heartbeat IPC: 1.01014 cumulative IPC: 1.01419 (Simulation time: 0 hr 23 min 27 sec) 
Heartbeat CPU 0 instructions: 800000001 cycles: 729441200 heartbeat IPC: 1.01691 cumulative IPC: 1.01423 (Simulation time: 0 hr 23 min 44 sec) 
Heartbeat CPU 0 instructions: 810000000 cycles: 739201403 heartbeat IPC: 1.02457 cumulative IPC: 1.01437 (Simulation time: 0 hr 24 min 1 sec) 
Heartbeat CPU 0 instructions: 820000000 cycles: 748881593 heartbeat IPC: 1.03304 cumulative IPC: 1.01463 (Simulation time: 0 hr 24 min 18 sec) 
Heartbeat CPU 0 instructions: 830000000 cycles: 758490925 heartbeat IPC: 1.04066 cumulative IPC: 1.01497 (Simulation time: 0 hr 24 min 35 sec) 
Heartbeat CPU 0 instructions: 840000000 cycles: 768189434 heartbeat IPC: 1.03109 cumulative IPC: 1.01519 (Simulation time: 0 hr 24 min 52 sec) 
Heartbeat CPU 0 instructions: 850000000 cycles: 778100302 heartbeat IPC: 1.00899 cumulative IPC: 1.01511 (Simulation time: 0 hr 25 min 9 sec) 
Heartbeat CPU 0 instructions: 860000000 cycles: 788021061 heartbeat IPC: 1.00799 cumulative IPC: 1.01501 (Simulation time: 0 hr 25 min 26 sec) 
Heartbeat CPU 0 instructions: 870000000 cycles: 797789359 heartbeat IPC: 1.02372 cumulative IPC: 1.01512 (Simulation time: 0 hr 25 min 43 sec) 
Heartbeat CPU 0 instructions: 880000000 cycles: 807669415 heartbeat IPC: 1.01214 cumulative IPC: 1.01509 (Simulation time: 0 hr 26 min 0 sec) 
Heartbeat CPU 0 instructions: 890000003 cycles: 817612848 heartbeat IPC: 1.00569 cumulative IPC: 1.01497 (Simulation time: 0 hr 26 min 17 sec) 
Heartbeat CPU 0 instructions: 900000000 cycles: 827519757 heartbeat IPC: 1.0094 cumulative IPC: 1.0149 (Simulation time: 0 hr 26 min 34 sec) 
Heartbeat CPU 0 instructions: 910000002 cycles: 837471490 heartbeat IPC: 1.00485 cumulative IPC: 1.01477 (Simulation time: 0 hr 26 min 53 sec) 
Heartbeat CPU 0 instructions: 920000002 cycles: 847371234 heartbeat IPC: 1.01013 cumulative IPC: 1.01471 (Simulation time: 0 hr 27 min 11 sec) 
Heartbeat CPU 0 instructions: 930000001 cycles: 857178970 heartbeat IPC: 1.0196 cumulative IPC: 1.01477 (Simulation time: 0 hr 27 min 29 sec) 
Heartbeat CPU 0 instructions: 940000000 cycles: 867034176 heartbeat IPC: 1.01469 cumulative IPC: 1.01477 (Simulation time: 0 hr 27 min 46 sec) 
Heartbeat CPU 0 instructions: 950000000 cycles: 876887432 heartbeat IPC: 1.01489 cumulative IPC: 1.01477 (Simulation time: 0 hr 28 min 4 sec) 
Heartbeat CPU 0 instructions: 960000001 cycles: 886727120 heartbeat IPC: 1.01629 cumulative IPC: 1.01479 (Simulation time: 0 hr 28 min 22 sec) 
Heartbeat CPU 0 instructions: 970000002 cycles: 896536426 heartbeat IPC: 1.01944 cumulative IPC: 1.01484 (Simulation time: 0 hr 28 min 39 sec) 
Heartbeat CPU 0 instructions: 980000000 cycles: 906373840 heartbeat IPC: 1.01653 cumulative IPC: 1.01486 (Simulation time: 0 hr 28 min 57 sec) 
Heartbeat CPU 0 instructions: 990000000 cycles: 916131821 heartbeat IPC: 1.0248 cumulative IPC: 1.01497 (Simulation time: 0 hr 29 min 14 sec) 
Heartbeat CPU 0 instructions: 1000000002 cycles: 926236282 heartbeat IPC: 0.989662 cumulative IPC: 1.01468 (Simulation time: 0 hr 29 min 32 sec) 
Heartbeat CPU 0 instructions: 1010000003 cycles: 936026086 heartbeat IPC: 1.02147 cumulative IPC: 1.01476 (Simulation time: 0 hr 29 min 50 sec) 
Heartbeat CPU 0 instructions: 1020000001 cycles: 945898167 heartbeat IPC: 1.01296 cumulative IPC: 1.01474 (Simulation time: 0 hr 30 min 8 sec) 
Heartbeat CPU 0 instructions: 1030000001 cycles: 955838851 heartbeat IPC: 1.00597 cumulative IPC: 1.01464 (Simulation time: 0 hr 30 min 25 sec) 
Heartbeat CPU 0 instructions: 1040000002 cycles: 965834783 heartbeat IPC: 1.00041 cumulative IPC: 1.01449 (Simulation time: 0 hr 30 min 43 sec) 
Heartbeat CPU 0 instructions: 1050000002 cycles: 975767492 heartbeat IPC: 1.00677 cumulative IPC: 1.01441 (Simulation time: 0 hr 31 min 1 sec) 
Heartbeat CPU 0 instructions: 1060000000 cycles: 985827805 heartbeat IPC: 0.994005 cumulative IPC: 1.01419 (Simulation time: 0 hr 31 min 18 sec) 
Heartbeat CPU 0 instructions: 1070000000 cycles: 995865720 heartbeat IPC: 0.996223 cumulative IPC: 1.014 (Simulation time: 0 hr 31 min 36 sec) 
Heartbeat CPU 0 instructions: 1080000003 cycles: 1005887727 heartbeat IPC: 0.997804 cumulative IPC: 1.01383 (Simulation time: 0 hr 31 min 53 sec) 
Heartbeat CPU 0 instructions: 1090000001 cycles: 1015843476 heartbeat IPC: 1.00444 cumulative IPC: 1.01374 (Simulation time: 0 hr 32 min 11 sec) 
Heartbeat CPU 0 instructions: 1100000000 cycles: 1025698993 heartbeat IPC: 1.01466 cumulative IPC: 1.01375 (Simulation time: 0 hr 32 min 29 sec) 
Finished CPU 0 instructions: 1000000000 cycles: 986438006 cumulative IPC: 1.01375 (Simulation time: 0 hr 32 min 29 sec) 

ChampSim completed all CPUs

Region of Interest Statistics

CPU 0 cumulative IPC: 1.01375 instructions: 1000000000 cycles: 986438006
L1D TOTAL     ACCESS:  298884251  HIT:  297538555  MISS:    1345696
L1D LOAD      ACCESS:  182740135  HIT:  181804715  MISS:     935420
L1D RFO       ACCESS:  116144116  HIT:  115733840  MISS:     410276
L1D PREFETCH  ACCESS:          0  HIT:          0  MISS:          0
L1D WRITEBACK ACCESS:          0  HIT:          0  MISS:          0
L1D PREFETCH  REQUESTED:          0  ISSUED:          0  USEFUL:          0  USELESS:          0
L1D AVERAGE MISS LATENCY: 53.7097 cycles
L1I TOTAL     ACCESS:  174284166  HIT:  173328500  MISS:     955666
L1I LOAD      ACCESS:  174284166  HIT:  173328500  MISS:     955666
L1I RFO       ACCESS:          0  HIT:          0  MISS:          0
L1I PREFETCH  ACCESS:          0  HIT:          0  MISS:          0
L1I WRITEBACK ACCESS:          0  HIT:          0  MISS:          0
L1I PREFETCH  REQUESTED:          0  ISSUED:          0  USEFUL:          0  USELESS:          0
L1I AVERAGE MISS LATENCY: 13.147 cycles
L2C TOTAL     ACCESS:    2969355  HIT:    2662509  MISS:     306846
L2C LOAD      ACCESS:    1891051  HIT:    1601175  MISS:     289876
L2C RFO       ACCESS:     410212  HIT:     393842  MISS:      16370
L2C PREFETCH  ACCESS:          0  HIT:          0  MISS:          0
L2C WRITEBACK ACCESS:     668092  HIT:     667492  MISS:        600
L2C PREFETCH  REQUESTED:          0  ISSUED:          0  USEFUL:          0  USELESS:          0
L2C AVERAGE MISS LATENCY: 181.38 cycles
LLC TOTAL     ACCESS:     513668  HIT:     249890  MISS:     263778
LLC LOAD      ACCESS:     289876  HIT:      32297  MISS:     257579
LLC RFO       ACCESS:      16370  HIT:      13236  MISS:       3134
LLC PREFETCH  ACCESS:          0  HIT:          0  MISS:          0
LLC WRITEBACK ACCESS:     207422  HIT:     204357  MISS:       3065
LLC PREFETCH  REQUESTED:          0  ISSUED:          0  USEFUL:          0  USELESS:          0
LLC AVERAGE MISS LATENCY: 164.444 cycles
Major fault: 0 Minor fault: 161415

DRAM Statistics
 CHANNEL 0
 RQ ROW_BUFFER_HIT:      46943  ROW_BUFFER_MISS:     213770
 DBUS_CONGESTED:      51800
 WQ ROW_BUFFER_HIT:       4465  ROW_BUFFER_MISS:     174022  FULL:          0

 AVG_CONGESTED_CYCLE: 6

CPU 0 Branch Prediction Accuracy: 90.7181% MPKI: 13.7272 Average ROB Occupancy at Mispredict: 30.4364

Branch types
NOT_BRANCH: 852108097 85.2108%
BRANCH_DIRECT_JUMP: 8658948 0.865895%
BRANCH_INDIRECT: 862270 0.086227%
BRANCH_CONDITIONAL: 98627220 9.86272%
BRANCH_DIRECT_CALL: 19871562 1.98716%
BRANCH_INDIRECT_CALL: 0 0%
BRANCH_RETURN: 19871559 1.98716%
BRANCH_OTHER: 0 0%

