
*** ChampSim Multicore Out-of-Order Simulator ***

Warmup Instructions: 100000000
Simulation Instructions: 1000000000
Number of CPUs: 1
LLC sets: 2048
LLC ways: 16
Off-chip DRAM Size: 4096 MB Channels: 1 Width: 64-bit Data Rate: 3200 MT/s

CPU 0 runs /scratch/user/kevin.weston/dpc3-traces/631.champsimtrace.xz
CPU 0 Bimodal branch predictor
Initialize SHIP state
Assign rand_sets[0]: 454  LLC: 2048
rand_sets[0]: 454
Assign rand_sets[1]: 1662  LLC: 2048
rand_sets[1]: 1662
Assign rand_sets[2]: 1921  LLC: 2048
rand_sets[2]: 1921
Assign rand_sets[3]: 1131  LLC: 2048
rand_sets[3]: 1131
Assign rand_sets[4]: 331  LLC: 2048
rand_sets[4]: 331
Assign rand_sets[5]: 1531  LLC: 2048
rand_sets[5]: 1531
Assign rand_sets[6]: 482  LLC: 2048
rand_sets[6]: 482
Assign rand_sets[7]: 1275  LLC: 2048
rand_sets[7]: 1275
Assign rand_sets[8]: 1876  LLC: 2048
rand_sets[8]: 1876
Assign rand_sets[9]: 2038  LLC: 2048
rand_sets[9]: 2038
Assign rand_sets[10]: 701  LLC: 2048
rand_sets[10]: 701
Assign rand_sets[11]: 479  LLC: 2048
rand_sets[11]: 479
Assign rand_sets[12]: 892  LLC: 2048
rand_sets[12]: 892
Assign rand_sets[13]: 1820  LLC: 2048
rand_sets[13]: 1820
Assign rand_sets[14]: 1505  LLC: 2048
rand_sets[14]: 1505
Assign rand_sets[15]: 1159  LLC: 2048
rand_sets[15]: 1159
Assign rand_sets[16]: 513  LLC: 2048
rand_sets[16]: 513
Assign rand_sets[17]: 703  LLC: 2048
rand_sets[17]: 703
Assign rand_sets[18]: 561  LLC: 2048
rand_sets[18]: 561
Assign rand_sets[19]: 990  LLC: 2048
rand_sets[19]: 990
Assign rand_sets[20]: 342  LLC: 2048
rand_sets[20]: 342
Assign rand_sets[21]: 882  LLC: 2048
rand_sets[21]: 882
Assign rand_sets[22]: 15  LLC: 2048
rand_sets[22]: 15
Assign rand_sets[23]: 71  LLC: 2048
rand_sets[23]: 71
Assign rand_sets[24]: 1127  LLC: 2048
rand_sets[24]: 1127
Assign rand_sets[25]: 1382  LLC: 2048
rand_sets[25]: 1382
Assign rand_sets[26]: 647  LLC: 2048
rand_sets[26]: 647
Assign rand_sets[27]: 857  LLC: 2048
rand_sets[27]: 857
Assign rand_sets[28]: 1450  LLC: 2048
rand_sets[28]: 1450
Assign rand_sets[29]: 1160  LLC: 2048
rand_sets[29]: 1160
Assign rand_sets[30]: 1852  LLC: 2048
rand_sets[30]: 1852
Assign rand_sets[31]: 1881  LLC: 2048
rand_sets[31]: 1881
Assign rand_sets[32]: 1770  LLC: 2048
rand_sets[32]: 1770
Assign rand_sets[33]: 1622  LLC: 2048
rand_sets[33]: 1622
Assign rand_sets[34]: 275  LLC: 2048
rand_sets[34]: 275
Assign rand_sets[35]: 635  LLC: 2048
rand_sets[35]: 635
Assign rand_sets[36]: 466  LLC: 2048
rand_sets[36]: 466
Assign rand_sets[37]: 1413  LLC: 2048
rand_sets[37]: 1413
Assign rand_sets[38]: 417  LLC: 2048
rand_sets[38]: 417
Assign rand_sets[39]: 472  LLC: 2048
rand_sets[39]: 472
Assign rand_sets[40]: 1340  LLC: 2048
rand_sets[40]: 1340
Assign rand_sets[41]: 852  LLC: 2048
rand_sets[41]: 852
Assign rand_sets[42]: 1365  LLC: 2048
rand_sets[42]: 1365
Assign rand_sets[43]: 47  LLC: 2048
rand_sets[43]: 47
Assign rand_sets[44]: 823  LLC: 2048
rand_sets[44]: 823
Assign rand_sets[45]: 686  LLC: 2048
rand_sets[45]: 686
Assign rand_sets[46]: 1637  LLC: 2048
rand_sets[46]: 1637
Assign rand_sets[47]: 1115  LLC: 2048
rand_sets[47]: 1115
Assign rand_sets[48]: 986  LLC: 2048
rand_sets[48]: 986
Assign rand_sets[49]: 258  LLC: 2048
rand_sets[49]: 258
Assign rand_sets[50]: 633  LLC: 2048
rand_sets[50]: 633
Assign rand_sets[51]: 920  LLC: 2048
rand_sets[51]: 920
Assign rand_sets[52]: 204  LLC: 2048
rand_sets[52]: 204
Assign rand_sets[53]: 227  LLC: 2048
rand_sets[53]: 227
Assign rand_sets[54]: 1818  LLC: 2048
rand_sets[54]: 1818
Assign rand_sets[55]: 886  LLC: 2048
rand_sets[55]: 886
Assign rand_sets[56]: 1422  LLC: 2048
rand_sets[56]: 1422
Assign rand_sets[57]: 607  LLC: 2048
rand_sets[57]: 607
Assign rand_sets[58]: 217  LLC: 2048
rand_sets[58]: 217
Assign rand_sets[59]: 1945  LLC: 2048
rand_sets[59]: 1945
Assign rand_sets[60]: 143  LLC: 2048
rand_sets[60]: 143
Assign rand_sets[61]: 1311  LLC: 2048
rand_sets[61]: 1311
Assign rand_sets[62]: 319  LLC: 2048
rand_sets[62]: 319
Assign rand_sets[63]: 1846  LLC: 2048
rand_sets[63]: 1846
Assign rand_sets[64]: 238  LLC: 2048
rand_sets[64]: 238
Assign rand_sets[65]: 67  LLC: 2048
rand_sets[65]: 67
Assign rand_sets[66]: 1912  LLC: 2048
rand_sets[66]: 1912
Assign rand_sets[67]: 1613  LLC: 2048
rand_sets[67]: 1613
Assign rand_sets[68]: 1293  LLC: 2048
rand_sets[68]: 1293
Assign rand_sets[69]: 1018  LLC: 2048
rand_sets[69]: 1018
Assign rand_sets[70]: 1982  LLC: 2048
rand_sets[70]: 1982
Assign rand_sets[71]: 1702  LLC: 2048
rand_sets[71]: 1702
Assign rand_sets[72]: 1498  LLC: 2048
rand_sets[72]: 1498
Assign rand_sets[73]: 228  LLC: 2048
rand_sets[73]: 228
Assign rand_sets[74]: 1414  LLC: 2048
rand_sets[74]: 1414
Assign rand_sets[75]: 1166  LLC: 2048
rand_sets[75]: 1166
Assign rand_sets[76]: 732  LLC: 2048
rand_sets[76]: 732
Assign rand_sets[77]: 297  LLC: 2048
rand_sets[77]: 297
Assign rand_sets[78]: 1133  LLC: 2048
rand_sets[78]: 1133
Assign rand_sets[79]: 846  LLC: 2048
rand_sets[79]: 846
Assign rand_sets[80]: 767  LLC: 2048
rand_sets[80]: 767
Assign rand_sets[81]: 1878  LLC: 2048
rand_sets[81]: 1878
Assign rand_sets[82]: 993  LLC: 2048
rand_sets[82]: 993
Assign rand_sets[83]: 1392  LLC: 2048
rand_sets[83]: 1392
Assign rand_sets[84]: 1568  LLC: 2048
rand_sets[84]: 1568
Assign rand_sets[85]: 1787  LLC: 2048
rand_sets[85]: 1787
Assign rand_sets[86]: 399  LLC: 2048
rand_sets[86]: 399
Assign rand_sets[87]: 1201  LLC: 2048
rand_sets[87]: 1201
Assign rand_sets[88]: 856  LLC: 2048
rand_sets[88]: 856
Assign rand_sets[89]: 773  LLC: 2048
rand_sets[89]: 773
Assign rand_sets[90]: 1680  LLC: 2048
rand_sets[90]: 1680
Assign rand_sets[91]: 1477  LLC: 2048
rand_sets[91]: 1477
Assign rand_sets[92]: 9  LLC: 2048
rand_sets[92]: 9
Assign rand_sets[93]: 1500  LLC: 2048
rand_sets[93]: 1500
Assign rand_sets[94]: 851  LLC: 2048
rand_sets[94]: 851
Assign rand_sets[95]: 973  LLC: 2048
rand_sets[95]: 973
Assign rand_sets[96]: 938  LLC: 2048
rand_sets[96]: 938
Assign rand_sets[97]: 1851  LLC: 2048
rand_sets[97]: 1851
Assign rand_sets[98]: 1608  LLC: 2048
rand_sets[98]: 1608
Assign rand_sets[99]: 1945  LLC: 2048
Assign rand_sets[99]: 1106  LLC: 2048
rand_sets[99]: 1106
Assign rand_sets[100]: 979  LLC: 2048
rand_sets[100]: 979
Assign rand_sets[101]: 338  LLC: 2048
rand_sets[101]: 338
Assign rand_sets[102]: 1693  LLC: 2048
rand_sets[102]: 1693
Assign rand_sets[103]: 6  LLC: 2048
rand_sets[103]: 6
Assign rand_sets[104]: 671  LLC: 2048
rand_sets[104]: 671
Assign rand_sets[105]: 490  LLC: 2048
rand_sets[105]: 490
Assign rand_sets[106]: 1461  LLC: 2048
rand_sets[106]: 1461
Assign rand_sets[107]: 1730  LLC: 2048
rand_sets[107]: 1730
Assign rand_sets[108]: 1030  LLC: 2048
rand_sets[108]: 1030
Assign rand_sets[109]: 19  LLC: 2048
rand_sets[109]: 19
Assign rand_sets[110]: 920  LLC: 2048
Assign rand_sets[110]: 329  LLC: 2048
rand_sets[110]: 329
Assign rand_sets[111]: 1714  LLC: 2048
rand_sets[111]: 1714
Assign rand_sets[112]: 1  LLC: 2048
rand_sets[112]: 1
Assign rand_sets[113]: 1822  LLC: 2048
rand_sets[113]: 1822
Assign rand_sets[114]: 172  LLC: 2048
rand_sets[114]: 172
Assign rand_sets[115]: 1586  LLC: 2048
rand_sets[115]: 1586
Assign rand_sets[116]: 648  LLC: 2048
rand_sets[116]: 648
Assign rand_sets[117]: 1329  LLC: 2048
rand_sets[117]: 1329
Assign rand_sets[118]: 668  LLC: 2048
rand_sets[118]: 668
Assign rand_sets[119]: 1874  LLC: 2048
rand_sets[119]: 1874
Assign rand_sets[120]: 70  LLC: 2048
rand_sets[120]: 70
Assign rand_sets[121]: 661  LLC: 2048
rand_sets[121]: 661
Assign rand_sets[122]: 1649  LLC: 2048
rand_sets[122]: 1649
Assign rand_sets[123]: 1590  LLC: 2048
rand_sets[123]: 1590
Assign rand_sets[124]: 911  LLC: 2048
rand_sets[124]: 911
Assign rand_sets[125]: 1367  LLC: 2048
rand_sets[125]: 1367
Assign rand_sets[126]: 1782  LLC: 2048
rand_sets[126]: 1782
Assign rand_sets[127]: 569  LLC: 2048
rand_sets[127]: 569
Heartbeat CPU 0 instructions: 10000000 cycles: 3950840 heartbeat IPC: 2.53111 cumulative IPC: 2.53111 (Simulation time: 0 hr 0 min 24 sec) 
Heartbeat CPU 0 instructions: 20000000 cycles: 8026450 heartbeat IPC: 2.45362 cumulative IPC: 2.49176 (Simulation time: 0 hr 0 min 48 sec) 
Heartbeat CPU 0 instructions: 30000000 cycles: 11977384 heartbeat IPC: 2.53105 cumulative IPC: 2.50472 (Simulation time: 0 hr 1 min 12 sec) 
Heartbeat CPU 0 instructions: 40000001 cycles: 15930227 heartbeat IPC: 2.52982 cumulative IPC: 2.51095 (Simulation time: 0 hr 1 min 36 sec) 
Heartbeat CPU 0 instructions: 50000001 cycles: 19880859 heartbeat IPC: 2.53124 cumulative IPC: 2.51498 (Simulation time: 0 hr 1 min 59 sec) 
Heartbeat CPU 0 instructions: 60000001 cycles: 23739167 heartbeat IPC: 2.59181 cumulative IPC: 2.52747 (Simulation time: 0 hr 2 min 22 sec) 
Heartbeat CPU 0 instructions: 70000001 cycles: 27563166 heartbeat IPC: 2.61506 cumulative IPC: 2.53962 (Simulation time: 0 hr 2 min 45 sec) 
Heartbeat CPU 0 instructions: 80000002 cycles: 31430073 heartbeat IPC: 2.58605 cumulative IPC: 2.54533 (Simulation time: 0 hr 3 min 8 sec) 
Heartbeat CPU 0 instructions: 90000001 cycles: 35327728 heartbeat IPC: 2.56564 cumulative IPC: 2.54757 (Simulation time: 0 hr 3 min 31 sec) 
Heartbeat CPU 0 instructions: 100000001 cycles: 39260960 heartbeat IPC: 2.54244 cumulative IPC: 2.54706 (Simulation time: 0 hr 3 min 55 sec) 

Warmup complete CPU 0 instructions: 100000001 cycles: 39260960 (Simulation time: 0 hr 3 min 55 sec) 

Heartbeat CPU 0 instructions: 110000000 cycles: 49120253 heartbeat IPC: 1.01427 cumulative IPC: 1.01427 (Simulation time: 0 hr 4 min 12 sec) 
Heartbeat CPU 0 instructions: 120000002 cycles: 58833090 heartbeat IPC: 1.02957 cumulative IPC: 1.02186 (Simulation time: 0 hr 4 min 29 sec) 
Heartbeat CPU 0 instructions: 130000001 cycles: 68668650 heartbeat IPC: 1.01672 cumulative IPC: 1.02014 (Simulation time: 0 hr 4 min 45 sec) 
Heartbeat CPU 0 instructions: 140000002 cycles: 78472085 heartbeat IPC: 1.02005 cumulative IPC: 1.02012 (Simulation time: 0 hr 5 min 2 sec) 
Heartbeat CPU 0 instructions: 150000002 cycles: 88206047 heartbeat IPC: 1.02733 cumulative IPC: 1.02155 (Simulation time: 0 hr 5 min 19 sec) 
Heartbeat CPU 0 instructions: 160000001 cycles: 97985867 heartbeat IPC: 1.02251 cumulative IPC: 1.02171 (Simulation time: 0 hr 5 min 36 sec) 
Heartbeat CPU 0 instructions: 170000001 cycles: 107816450 heartbeat IPC: 1.01723 cumulative IPC: 1.02107 (Simulation time: 0 hr 5 min 53 sec) 
Heartbeat CPU 0 instructions: 180000002 cycles: 117707177 heartbeat IPC: 1.01105 cumulative IPC: 1.01981 (Simulation time: 0 hr 6 min 10 sec) 
Heartbeat CPU 0 instructions: 190000003 cycles: 127623145 heartbeat IPC: 1.00847 cumulative IPC: 1.01854 (Simulation time: 0 hr 6 min 27 sec) 
Heartbeat CPU 0 instructions: 200000000 cycles: 137699662 heartbeat IPC: 0.992406 cumulative IPC: 1.01586 (Simulation time: 0 hr 6 min 44 sec) 
Heartbeat CPU 0 instructions: 210000002 cycles: 147529507 heartbeat IPC: 1.01731 cumulative IPC: 1.01599 (Simulation time: 0 hr 7 min 1 sec) 
Heartbeat CPU 0 instructions: 220000000 cycles: 157534050 heartbeat IPC: 0.999546 cumulative IPC: 1.0146 (Simulation time: 0 hr 7 min 18 sec) 
Heartbeat CPU 0 instructions: 230000003 cycles: 167498592 heartbeat IPC: 1.00356 cumulative IPC: 1.01374 (Simulation time: 0 hr 7 min 36 sec) 
Heartbeat CPU 0 instructions: 240000000 cycles: 177311269 heartbeat IPC: 1.01909 cumulative IPC: 1.01412 (Simulation time: 0 hr 7 min 53 sec) 
Heartbeat CPU 0 instructions: 250000000 cycles: 187064916 heartbeat IPC: 1.02526 cumulative IPC: 1.01486 (Simulation time: 0 hr 8 min 11 sec) 
Heartbeat CPU 0 instructions: 260000000 cycles: 196837477 heartbeat IPC: 1.02327 cumulative IPC: 1.01538 (Simulation time: 0 hr 8 min 28 sec) 
Heartbeat CPU 0 instructions: 270000003 cycles: 206618449 heartbeat IPC: 1.02239 cumulative IPC: 1.01579 (Simulation time: 0 hr 8 min 46 sec) 
Heartbeat CPU 0 instructions: 280000002 cycles: 216556563 heartbeat IPC: 1.00623 cumulative IPC: 1.01525 (Simulation time: 0 hr 9 min 3 sec) 
Heartbeat CPU 0 instructions: 290000000 cycles: 226443953 heartbeat IPC: 1.01139 cumulative IPC: 1.01505 (Simulation time: 0 hr 9 min 20 sec) 
Heartbeat CPU 0 instructions: 300000002 cycles: 236295615 heartbeat IPC: 1.01506 cumulative IPC: 1.01505 (Simulation time: 0 hr 9 min 37 sec) 
Heartbeat CPU 0 instructions: 310000000 cycles: 246184565 heartbeat IPC: 1.01123 cumulative IPC: 1.01487 (Simulation time: 0 hr 9 min 54 sec) 
Heartbeat CPU 0 instructions: 320000000 cycles: 256229370 heartbeat IPC: 0.995539 cumulative IPC: 1.01397 (Simulation time: 0 hr 10 min 12 sec) 
Heartbeat CPU 0 instructions: 330000000 cycles: 266318561 heartbeat IPC: 0.99116 cumulative IPC: 1.01296 (Simulation time: 0 hr 10 min 29 sec) 
Heartbeat CPU 0 instructions: 340000003 cycles: 276188142 heartbeat IPC: 1.01321 cumulative IPC: 1.01297 (Simulation time: 0 hr 10 min 46 sec) 
Heartbeat CPU 0 instructions: 350000000 cycles: 286082155 heartbeat IPC: 1.01071 cumulative IPC: 1.01288 (Simulation time: 0 hr 11 min 3 sec) 
Heartbeat CPU 0 instructions: 360000003 cycles: 295940404 heartbeat IPC: 1.01438 cumulative IPC: 1.01294 (Simulation time: 0 hr 11 min 20 sec) 
Heartbeat CPU 0 instructions: 370000000 cycles: 305823914 heartbeat IPC: 1.01179 cumulative IPC: 1.01289 (Simulation time: 0 hr 11 min 37 sec) 
Heartbeat CPU 0 instructions: 380000003 cycles: 315689479 heartbeat IPC: 1.01363 cumulative IPC: 1.01292 (Simulation time: 0 hr 11 min 54 sec) 
Heartbeat CPU 0 instructions: 390000002 cycles: 325607937 heartbeat IPC: 1.00822 cumulative IPC: 1.01276 (Simulation time: 0 hr 12 min 11 sec) 
Heartbeat CPU 0 instructions: 400000000 cycles: 335584507 heartbeat IPC: 1.00235 cumulative IPC: 1.01241 (Simulation time: 0 hr 12 min 29 sec) 
Heartbeat CPU 0 instructions: 410000001 cycles: 345778310 heartbeat IPC: 0.980988 cumulative IPC: 1.01136 (Simulation time: 0 hr 12 min 46 sec) 
Heartbeat CPU 0 instructions: 420000003 cycles: 355741533 heartbeat IPC: 1.00369 cumulative IPC: 1.01112 (Simulation time: 0 hr 13 min 3 sec) 
Heartbeat CPU 0 instructions: 430000001 cycles: 365772209 heartbeat IPC: 0.996942 cumulative IPC: 1.01068 (Simulation time: 0 hr 13 min 20 sec) 
Heartbeat CPU 0 instructions: 440000000 cycles: 375705614 heartbeat IPC: 1.0067 cumulative IPC: 1.01057 (Simulation time: 0 hr 13 min 37 sec) 
Heartbeat CPU 0 instructions: 450000003 cycles: 385745395 heartbeat IPC: 0.996038 cumulative IPC: 1.01015 (Simulation time: 0 hr 13 min 54 sec) 
Heartbeat CPU 0 instructions: 460000003 cycles: 395786239 heartbeat IPC: 0.995932 cumulative IPC: 1.00975 (Simulation time: 0 hr 14 min 11 sec) 
Heartbeat CPU 0 instructions: 470000000 cycles: 405837560 heartbeat IPC: 0.994894 cumulative IPC: 1.00934 (Simulation time: 0 hr 14 min 28 sec) 
Heartbeat CPU 0 instructions: 480000001 cycles: 415844469 heartbeat IPC: 0.99931 cumulative IPC: 1.00907 (Simulation time: 0 hr 14 min 46 sec) 
Heartbeat CPU 0 instructions: 490000000 cycles: 425610531 heartbeat IPC: 1.02395 cumulative IPC: 1.00945 (Simulation time: 0 hr 15 min 3 sec) 
Heartbeat CPU 0 instructions: 500000001 cycles: 435358070 heartbeat IPC: 1.0259 cumulative IPC: 1.00985 (Simulation time: 0 hr 15 min 20 sec) 
Heartbeat CPU 0 instructions: 510000000 cycles: 445041851 heartbeat IPC: 1.03265 cumulative IPC: 1.0104 (Simulation time: 0 hr 15 min 38 sec) 
Heartbeat CPU 0 instructions: 520000001 cycles: 454743056 heartbeat IPC: 1.0308 cumulative IPC: 1.01087 (Simulation time: 0 hr 15 min 55 sec) 
Heartbeat CPU 0 instructions: 530000001 cycles: 464560009 heartbeat IPC: 1.01865 cumulative IPC: 1.01105 (Simulation time: 0 hr 16 min 12 sec) 
Heartbeat CPU 0 instructions: 540000003 cycles: 474372012 heartbeat IPC: 1.01916 cumulative IPC: 1.01124 (Simulation time: 0 hr 16 min 29 sec) 
Heartbeat CPU 0 instructions: 550000000 cycles: 484125918 heartbeat IPC: 1.02523 cumulative IPC: 1.01154 (Simulation time: 0 hr 16 min 46 sec) 
Heartbeat CPU 0 instructions: 560000002 cycles: 493811327 heartbeat IPC: 1.03248 cumulative IPC: 1.01199 (Simulation time: 0 hr 17 min 3 sec) 
Heartbeat CPU 0 instructions: 570000000 cycles: 503413759 heartbeat IPC: 1.0414 cumulative IPC: 1.0126 (Simulation time: 0 hr 17 min 20 sec) 
Heartbeat CPU 0 instructions: 580000000 cycles: 513129647 heartbeat IPC: 1.02924 cumulative IPC: 1.01294 (Simulation time: 0 hr 17 min 37 sec) 
Heartbeat CPU 0 instructions: 590000000 cycles: 522982790 heartbeat IPC: 1.0149 cumulative IPC: 1.01298 (Simulation time: 0 hr 17 min 55 sec) 
Heartbeat CPU 0 instructions: 600000000 cycles: 532733283 heartbeat IPC: 1.02559 cumulative IPC: 1.01323 (Simulation time: 0 hr 18 min 12 sec) 
Heartbeat CPU 0 instructions: 610000002 cycles: 542614687 heartbeat IPC: 1.012 cumulative IPC: 1.0132 (Simulation time: 0 hr 18 min 28 sec) 
Heartbeat CPU 0 instructions: 620000001 cycles: 552419829 heartbeat IPC: 1.01987 cumulative IPC: 1.01333 (Simulation time: 0 hr 18 min 45 sec) 
Heartbeat CPU 0 instructions: 630000000 cycles: 562184592 heartbeat IPC: 1.02409 cumulative IPC: 1.01353 (Simulation time: 0 hr 19 min 2 sec) 
Heartbeat CPU 0 instructions: 640000001 cycles: 571928223 heartbeat IPC: 1.02631 cumulative IPC: 1.01377 (Simulation time: 0 hr 19 min 20 sec) 
Heartbeat CPU 0 instructions: 650000000 cycles: 581675175 heartbeat IPC: 1.02596 cumulative IPC: 1.01399 (Simulation time: 0 hr 19 min 37 sec) 
Heartbeat CPU 0 instructions: 660000000 cycles: 591376306 heartbeat IPC: 1.03081 cumulative IPC: 1.01428 (Simulation time: 0 hr 19 min 54 sec) 
Heartbeat CPU 0 instructions: 670000000 cycles: 600954672 heartbeat IPC: 1.04402 cumulative IPC: 1.01479 (Simulation time: 0 hr 20 min 12 sec) 
Heartbeat CPU 0 instructions: 680000002 cycles: 610678291 heartbeat IPC: 1.02842 cumulative IPC: 1.01502 (Simulation time: 0 hr 20 min 30 sec) 
Heartbeat CPU 0 instructions: 690000001 cycles: 620533518 heartbeat IPC: 1.01469 cumulative IPC: 1.01501 (Simulation time: 0 hr 20 min 48 sec) 
Heartbeat CPU 0 instructions: 700000000 cycles: 630449487 heartbeat IPC: 1.00847 cumulative IPC: 1.0149 (Simulation time: 0 hr 21 min 6 sec) 
Heartbeat CPU 0 instructions: 710000001 cycles: 640131680 heartbeat IPC: 1.03282 cumulative IPC: 1.01519 (Simulation time: 0 hr 21 min 23 sec) 
Heartbeat CPU 0 instructions: 720000000 cycles: 649837141 heartbeat IPC: 1.03035 cumulative IPC: 1.01543 (Simulation time: 0 hr 21 min 40 sec) 
Heartbeat CPU 0 instructions: 730000000 cycles: 659529712 heartbeat IPC: 1.03172 cumulative IPC: 1.01569 (Simulation time: 0 hr 21 min 57 sec) 
Heartbeat CPU 0 instructions: 740000000 cycles: 669260396 heartbeat IPC: 1.02768 cumulative IPC: 1.01587 (Simulation time: 0 hr 22 min 14 sec) 
Heartbeat CPU 0 instructions: 750000000 cycles: 679057604 heartbeat IPC: 1.0207 cumulative IPC: 1.01595 (Simulation time: 0 hr 22 min 31 sec) 
Heartbeat CPU 0 instructions: 760000001 cycles: 688809874 heartbeat IPC: 1.0254 cumulative IPC: 1.01609 (Simulation time: 0 hr 22 min 48 sec) 
Heartbeat CPU 0 instructions: 770000000 cycles: 698715901 heartbeat IPC: 1.00949 cumulative IPC: 1.01599 (Simulation time: 0 hr 23 min 5 sec) 
Heartbeat CPU 0 instructions: 780000000 cycles: 708701476 heartbeat IPC: 1.00144 cumulative IPC: 1.01577 (Simulation time: 0 hr 23 min 23 sec) 
Heartbeat CPU 0 instructions: 790000001 cycles: 718590753 heartbeat IPC: 1.0112 cumulative IPC: 1.01571 (Simulation time: 0 hr 23 min 40 sec) 
Heartbeat CPU 0 instructions: 800000001 cycles: 728410262 heartbeat IPC: 1.01838 cumulative IPC: 1.01575 (Simulation time: 0 hr 23 min 57 sec) 
Heartbeat CPU 0 instructions: 810000000 cycles: 738166640 heartbeat IPC: 1.02497 cumulative IPC: 1.01587 (Simulation time: 0 hr 24 min 14 sec) 
Heartbeat CPU 0 instructions: 820000000 cycles: 747838598 heartbeat IPC: 1.03392 cumulative IPC: 1.01612 (Simulation time: 0 hr 24 min 31 sec) 
Heartbeat CPU 0 instructions: 830000000 cycles: 757433262 heartbeat IPC: 1.04225 cumulative IPC: 1.01647 (Simulation time: 0 hr 24 min 49 sec) 
Heartbeat CPU 0 instructions: 840000000 cycles: 767123690 heartbeat IPC: 1.03195 cumulative IPC: 1.01668 (Simulation time: 0 hr 25 min 6 sec) 
Heartbeat CPU 0 instructions: 850000000 cycles: 777023110 heartbeat IPC: 1.01016 cumulative IPC: 1.01659 (Simulation time: 0 hr 25 min 23 sec) 
Heartbeat CPU 0 instructions: 860000000 cycles: 786929679 heartbeat IPC: 1.00943 cumulative IPC: 1.01649 (Simulation time: 0 hr 25 min 41 sec) 
Heartbeat CPU 0 instructions: 870000000 cycles: 796692683 heartbeat IPC: 1.02427 cumulative IPC: 1.01659 (Simulation time: 0 hr 25 min 58 sec) 
Heartbeat CPU 0 instructions: 880000000 cycles: 806565452 heartbeat IPC: 1.01289 cumulative IPC: 1.01655 (Simulation time: 0 hr 26 min 15 sec) 
Heartbeat CPU 0 instructions: 890000003 cycles: 816499818 heartbeat IPC: 1.00661 cumulative IPC: 1.01642 (Simulation time: 0 hr 26 min 32 sec) 
Heartbeat CPU 0 instructions: 900000000 cycles: 826410748 heartbeat IPC: 1.00899 cumulative IPC: 1.01632 (Simulation time: 0 hr 26 min 50 sec) 
Heartbeat CPU 0 instructions: 910000002 cycles: 836356480 heartbeat IPC: 1.00546 cumulative IPC: 1.01619 (Simulation time: 0 hr 27 min 7 sec) 
Heartbeat CPU 0 instructions: 920000002 cycles: 846253389 heartbeat IPC: 1.01042 cumulative IPC: 1.01612 (Simulation time: 0 hr 27 min 25 sec) 
Heartbeat CPU 0 instructions: 930000001 cycles: 856056009 heartbeat IPC: 1.02014 cumulative IPC: 1.01617 (Simulation time: 0 hr 27 min 42 sec) 
Heartbeat CPU 0 instructions: 940000000 cycles: 865911958 heartbeat IPC: 1.01462 cumulative IPC: 1.01615 (Simulation time: 0 hr 27 min 59 sec) 
Heartbeat CPU 0 instructions: 950000000 cycles: 875759721 heartbeat IPC: 1.01546 cumulative IPC: 1.01614 (Simulation time: 0 hr 28 min 19 sec) 
Heartbeat CPU 0 instructions: 960000001 cycles: 885581406 heartbeat IPC: 1.01816 cumulative IPC: 1.01616 (Simulation time: 0 hr 28 min 37 sec) 
Heartbeat CPU 0 instructions: 970000002 cycles: 895375737 heartbeat IPC: 1.021 cumulative IPC: 1.01622 (Simulation time: 0 hr 28 min 55 sec) 
Heartbeat CPU 0 instructions: 980000000 cycles: 905201120 heartbeat IPC: 1.01777 cumulative IPC: 1.01624 (Simulation time: 0 hr 29 min 13 sec) 
Heartbeat CPU 0 instructions: 990000000 cycles: 914941113 heartbeat IPC: 1.02669 cumulative IPC: 1.01635 (Simulation time: 0 hr 29 min 31 sec) 
Heartbeat CPU 0 instructions: 1000000002 cycles: 925031522 heartbeat IPC: 0.99104 cumulative IPC: 1.01606 (Simulation time: 0 hr 29 min 49 sec) 
Heartbeat CPU 0 instructions: 1010000003 cycles: 934805429 heartbeat IPC: 1.02313 cumulative IPC: 1.01614 (Simulation time: 0 hr 30 min 7 sec) 
Heartbeat CPU 0 instructions: 1020000001 cycles: 944670739 heartbeat IPC: 1.01365 cumulative IPC: 1.01611 (Simulation time: 0 hr 30 min 25 sec) 
Heartbeat CPU 0 instructions: 1030000001 cycles: 954603804 heartbeat IPC: 1.00674 cumulative IPC: 1.01601 (Simulation time: 0 hr 30 min 43 sec) 
Heartbeat CPU 0 instructions: 1040000002 cycles: 964587455 heartbeat IPC: 1.00164 cumulative IPC: 1.01586 (Simulation time: 0 hr 31 min 1 sec) 
Heartbeat CPU 0 instructions: 1050000002 cycles: 974509241 heartbeat IPC: 1.00788 cumulative IPC: 1.01577 (Simulation time: 0 hr 31 min 19 sec) 
Heartbeat CPU 0 instructions: 1060000000 cycles: 984558340 heartbeat IPC: 0.995114 cumulative IPC: 1.01555 (Simulation time: 0 hr 31 min 37 sec) 
Heartbeat CPU 0 instructions: 1070000000 cycles: 994588044 heartbeat IPC: 0.997038 cumulative IPC: 1.01536 (Simulation time: 0 hr 31 min 56 sec) 
Heartbeat CPU 0 instructions: 1080000003 cycles: 1004583933 heartbeat IPC: 1.00041 cumulative IPC: 1.0152 (Simulation time: 0 hr 32 min 15 sec) 
Heartbeat CPU 0 instructions: 1090000001 cycles: 1014506910 heartbeat IPC: 1.00776 cumulative IPC: 1.01513 (Simulation time: 0 hr 32 min 33 sec) 
Heartbeat CPU 0 instructions: 1100000000 cycles: 1024338839 heartbeat IPC: 1.01709 cumulative IPC: 1.01515 (Simulation time: 0 hr 32 min 51 sec) 
Finished CPU 0 instructions: 1000000000 cycles: 985077880 cumulative IPC: 1.01515 (Simulation time: 0 hr 32 min 51 sec) 

ChampSim completed all CPUs

Region of Interest Statistics

CPU 0 cumulative IPC: 1.01515 instructions: 1000000000 cycles: 985077880
L1D TOTAL     ACCESS:  298881678  HIT:  297535983  MISS:    1345695
L1D LOAD      ACCESS:  182739412  HIT:  181803994  MISS:     935418
L1D RFO       ACCESS:  116142266  HIT:  115731989  MISS:     410277
L1D PREFETCH  ACCESS:          0  HIT:          0  MISS:          0
L1D WRITEBACK ACCESS:          0  HIT:          0  MISS:          0
L1D PREFETCH  REQUESTED:          0  ISSUED:          0  USEFUL:          0  USELESS:          0
L1D AVERAGE MISS LATENCY: 52.1516 cycles
L1I TOTAL     ACCESS:  174283589  HIT:  173327923  MISS:     955666
L1I LOAD      ACCESS:  174283589  HIT:  173327923  MISS:     955666
L1I RFO       ACCESS:          0  HIT:          0  MISS:          0
L1I PREFETCH  ACCESS:          0  HIT:          0  MISS:          0
L1I WRITEBACK ACCESS:          0  HIT:          0  MISS:          0
L1I PREFETCH  REQUESTED:          0  ISSUED:          0  USEFUL:          0  USELESS:          0
L1I AVERAGE MISS LATENCY: 13.0929 cycles
L2C TOTAL     ACCESS:    2969355  HIT:    2661340  MISS:     308015
L2C LOAD      ACCESS:    1891049  HIT:    1601719  MISS:     289330
L2C RFO       ACCESS:     410214  HIT:     392270  MISS:      17944
L2C PREFETCH  ACCESS:          0  HIT:          0  MISS:          0
L2C WRITEBACK ACCESS:     668092  HIT:     667351  MISS:        741
L2C PREFETCH  REQUESTED:          0  ISSUED:          0  USEFUL:          0  USELESS:          0
L2C AVERAGE MISS LATENCY: 173.717 cycles
LLC TOTAL     ACCESS:     516187  HIT:     110971  MISS:     405216
LLC LOAD      ACCESS:     289330  HIT:      31962  MISS:     257368
LLC RFO       ACCESS:      17944  HIT:      16002  MISS:       1942
LLC PREFETCH  ACCESS:          0  HIT:          0  MISS:          0
LLC WRITEBACK ACCESS:     208913  HIT:      63007  MISS:     145906
LLC PREFETCH  REQUESTED:          0  ISSUED:          0  USEFUL:          0  USELESS:          0
LLC AVERAGE MISS LATENCY: 101.625 cycles
Major fault: 0 Minor fault: 161415

DRAM Statistics
 CHANNEL 0
 RQ ROW_BUFFER_HIT:      66052  ROW_BUFFER_MISS:     193258
 DBUS_CONGESTED:      48195
 WQ ROW_BUFFER_HIT:       4493  ROW_BUFFER_MISS:     164304  FULL:          0

 AVG_CONGESTED_CYCLE: 6

CPU 0 Branch Prediction Accuracy: 90.7181% MPKI: 13.7272 Average ROB Occupancy at Mispredict: 30.4317

Branch types
NOT_BRANCH: 852108097 85.2108%
BRANCH_DIRECT_JUMP: 8658948 0.865895%
BRANCH_INDIRECT: 862270 0.086227%
BRANCH_CONDITIONAL: 98627220 9.86272%
BRANCH_DIRECT_CALL: 19871562 1.98716%
BRANCH_INDIRECT_CALL: 0 0%
BRANCH_RETURN: 19871559 1.98716%
BRANCH_OTHER: 0 0%

