
*** ChampSim Multicore Out-of-Order Simulator ***

Warmup Instructions: 100000000
Simulation Instructions: 1000000000
Number of CPUs: 1
LLC sets: 2048
LLC ways: 16
Off-chip DRAM Size: 4096 MB Channels: 1 Width: 64-bit Data Rate: 3200 MT/s

CPU 0 runs /scratch/user/kevin.weston/dpc3-traces/631.champsimtrace.xz
CPU 0 Bimodal branch predictor
Per-line RRPV Initialized
PRRIP State Initialized
Assign SAMPLER_SET[0]: 454  LLC: 2048
SAMPLER_SET[0]: 454
Assign SAMPLER_SET[1]: 1662  LLC: 2048
SAMPLER_SET[1]: 1662
Assign SAMPLER_SET[2]: 1921  LLC: 2048
SAMPLER_SET[2]: 1921
Assign SAMPLER_SET[3]: 1131  LLC: 2048
SAMPLER_SET[3]: 1131
Assign SAMPLER_SET[4]: 331  LLC: 2048
SAMPLER_SET[4]: 331
Assign SAMPLER_SET[5]: 1531  LLC: 2048
SAMPLER_SET[5]: 1531
Assign SAMPLER_SET[6]: 482  LLC: 2048
SAMPLER_SET[6]: 482
Assign SAMPLER_SET[7]: 1275  LLC: 2048
SAMPLER_SET[7]: 1275
Assign SAMPLER_SET[8]: 1876  LLC: 2048
SAMPLER_SET[8]: 1876
Assign SAMPLER_SET[9]: 2038  LLC: 2048
SAMPLER_SET[9]: 2038
Assign SAMPLER_SET[10]: 701  LLC: 2048
SAMPLER_SET[10]: 701
Assign SAMPLER_SET[11]: 479  LLC: 2048
SAMPLER_SET[11]: 479
Assign SAMPLER_SET[12]: 892  LLC: 2048
SAMPLER_SET[12]: 892
Assign SAMPLER_SET[13]: 1820  LLC: 2048
SAMPLER_SET[13]: 1820
Assign SAMPLER_SET[14]: 1505  LLC: 2048
SAMPLER_SET[14]: 1505
Assign SAMPLER_SET[15]: 1159  LLC: 2048
SAMPLER_SET[15]: 1159
Assign SAMPLER_SET[16]: 513  LLC: 2048
SAMPLER_SET[16]: 513
Assign SAMPLER_SET[17]: 703  LLC: 2048
SAMPLER_SET[17]: 703
Assign SAMPLER_SET[18]: 561  LLC: 2048
SAMPLER_SET[18]: 561
Assign SAMPLER_SET[19]: 990  LLC: 2048
SAMPLER_SET[19]: 990
Assign SAMPLER_SET[20]: 342  LLC: 2048
SAMPLER_SET[20]: 342
Assign SAMPLER_SET[21]: 882  LLC: 2048
SAMPLER_SET[21]: 882
Assign SAMPLER_SET[22]: 15  LLC: 2048
SAMPLER_SET[22]: 15
Assign SAMPLER_SET[23]: 71  LLC: 2048
SAMPLER_SET[23]: 71
Assign SAMPLER_SET[24]: 1127  LLC: 2048
SAMPLER_SET[24]: 1127
Assign SAMPLER_SET[25]: 1382  LLC: 2048
SAMPLER_SET[25]: 1382
Assign SAMPLER_SET[26]: 647  LLC: 2048
SAMPLER_SET[26]: 647
Assign SAMPLER_SET[27]: 857  LLC: 2048
SAMPLER_SET[27]: 857
Assign SAMPLER_SET[28]: 1450  LLC: 2048
SAMPLER_SET[28]: 1450
Assign SAMPLER_SET[29]: 1160  LLC: 2048
SAMPLER_SET[29]: 1160
Assign SAMPLER_SET[30]: 1852  LLC: 2048
SAMPLER_SET[30]: 1852
Assign SAMPLER_SET[31]: 1881  LLC: 2048
SAMPLER_SET[31]: 1881
Assign SAMPLER_SET[32]: 1770  LLC: 2048
SAMPLER_SET[32]: 1770
Assign SAMPLER_SET[33]: 1622  LLC: 2048
SAMPLER_SET[33]: 1622
Assign SAMPLER_SET[34]: 275  LLC: 2048
SAMPLER_SET[34]: 275
Assign SAMPLER_SET[35]: 635  LLC: 2048
SAMPLER_SET[35]: 635
Assign SAMPLER_SET[36]: 466  LLC: 2048
SAMPLER_SET[36]: 466
Assign SAMPLER_SET[37]: 1413  LLC: 2048
SAMPLER_SET[37]: 1413
Assign SAMPLER_SET[38]: 417  LLC: 2048
SAMPLER_SET[38]: 417
Assign SAMPLER_SET[39]: 472  LLC: 2048
SAMPLER_SET[39]: 472
Assign SAMPLER_SET[40]: 1340  LLC: 2048
SAMPLER_SET[40]: 1340
Assign SAMPLER_SET[41]: 852  LLC: 2048
SAMPLER_SET[41]: 852
Assign SAMPLER_SET[42]: 1365  LLC: 2048
SAMPLER_SET[42]: 1365
Assign SAMPLER_SET[43]: 47  LLC: 2048
SAMPLER_SET[43]: 47
Assign SAMPLER_SET[44]: 823  LLC: 2048
SAMPLER_SET[44]: 823
Assign SAMPLER_SET[45]: 686  LLC: 2048
SAMPLER_SET[45]: 686
Assign SAMPLER_SET[46]: 1637  LLC: 2048
SAMPLER_SET[46]: 1637
Assign SAMPLER_SET[47]: 1115  LLC: 2048
SAMPLER_SET[47]: 1115
Assign SAMPLER_SET[48]: 986  LLC: 2048
SAMPLER_SET[48]: 986
Assign SAMPLER_SET[49]: 258  LLC: 2048
SAMPLER_SET[49]: 258
Assign SAMPLER_SET[50]: 633  LLC: 2048
SAMPLER_SET[50]: 633
Assign SAMPLER_SET[51]: 920  LLC: 2048
SAMPLER_SET[51]: 920
Assign SAMPLER_SET[52]: 204  LLC: 2048
SAMPLER_SET[52]: 204
Assign SAMPLER_SET[53]: 227  LLC: 2048
SAMPLER_SET[53]: 227
Assign SAMPLER_SET[54]: 1818  LLC: 2048
SAMPLER_SET[54]: 1818
Assign SAMPLER_SET[55]: 886  LLC: 2048
SAMPLER_SET[55]: 886
Assign SAMPLER_SET[56]: 1422  LLC: 2048
SAMPLER_SET[56]: 1422
Assign SAMPLER_SET[57]: 607  LLC: 2048
SAMPLER_SET[57]: 607
Assign SAMPLER_SET[58]: 217  LLC: 2048
SAMPLER_SET[58]: 217
Assign SAMPLER_SET[59]: 1945  LLC: 2048
SAMPLER_SET[59]: 1945
Assign SAMPLER_SET[60]: 143  LLC: 2048
SAMPLER_SET[60]: 143
Assign SAMPLER_SET[61]: 1311  LLC: 2048
SAMPLER_SET[61]: 1311
Assign SAMPLER_SET[62]: 319  LLC: 2048
SAMPLER_SET[62]: 319
Assign SAMPLER_SET[63]: 1846  LLC: 2048
SAMPLER_SET[63]: 1846
Heartbeat CPU 0 instructions: 10000000 cycles: 3950841 heartbeat IPC: 2.53111 cumulative IPC: 2.53111 (Simulation time: 0 hr 0 min 25 sec) 
Heartbeat CPU 0 instructions: 20000000 cycles: 8026455 heartbeat IPC: 2.45362 cumulative IPC: 2.49176 (Simulation time: 0 hr 0 min 50 sec) 
Heartbeat CPU 0 instructions: 30000000 cycles: 11977399 heartbeat IPC: 2.53104 cumulative IPC: 2.50472 (Simulation time: 0 hr 1 min 14 sec) 
Heartbeat CPU 0 instructions: 40000001 cycles: 15930234 heartbeat IPC: 2.52983 cumulative IPC: 2.51095 (Simulation time: 0 hr 1 min 39 sec) 
Heartbeat CPU 0 instructions: 50000001 cycles: 19880849 heartbeat IPC: 2.53125 cumulative IPC: 2.51498 (Simulation time: 0 hr 2 min 4 sec) 
Heartbeat CPU 0 instructions: 60000001 cycles: 23739162 heartbeat IPC: 2.59181 cumulative IPC: 2.52747 (Simulation time: 0 hr 2 min 29 sec) 
Heartbeat CPU 0 instructions: 70000001 cycles: 27563164 heartbeat IPC: 2.61506 cumulative IPC: 2.53962 (Simulation time: 0 hr 2 min 53 sec) 
Heartbeat CPU 0 instructions: 80000002 cycles: 31430078 heartbeat IPC: 2.58604 cumulative IPC: 2.54533 (Simulation time: 0 hr 3 min 19 sec) 
Heartbeat CPU 0 instructions: 90000001 cycles: 35327734 heartbeat IPC: 2.56564 cumulative IPC: 2.54757 (Simulation time: 0 hr 3 min 45 sec) 
Heartbeat CPU 0 instructions: 100000001 cycles: 39260962 heartbeat IPC: 2.54244 cumulative IPC: 2.54706 (Simulation time: 0 hr 4 min 11 sec) 

Warmup complete CPU 0 instructions: 100000001 cycles: 39260962 (Simulation time: 0 hr 4 min 11 sec) 

Heartbeat CPU 0 instructions: 110000000 cycles: 49128287 heartbeat IPC: 1.01345 cumulative IPC: 1.01345 (Simulation time: 0 hr 4 min 29 sec) 
Heartbeat CPU 0 instructions: 120000002 cycles: 58850836 heartbeat IPC: 1.02854 cumulative IPC: 1.02094 (Simulation time: 0 hr 4 min 47 sec) 
Heartbeat CPU 0 instructions: 130000001 cycles: 68706366 heartbeat IPC: 1.01466 cumulative IPC: 1.01883 (Simulation time: 0 hr 5 min 6 sec) 
Heartbeat CPU 0 instructions: 140000002 cycles: 78525970 heartbeat IPC: 1.01837 cumulative IPC: 1.01872 (Simulation time: 0 hr 5 min 24 sec) 
Heartbeat CPU 0 instructions: 150000002 cycles: 88288268 heartbeat IPC: 1.02435 cumulative IPC: 1.01984 (Simulation time: 0 hr 5 min 42 sec) 
Heartbeat CPU 0 instructions: 160000001 cycles: 98090342 heartbeat IPC: 1.02019 cumulative IPC: 1.0199 (Simulation time: 0 hr 6 min 1 sec) 
Heartbeat CPU 0 instructions: 170000001 cycles: 107959776 heartbeat IPC: 1.01323 cumulative IPC: 1.01894 (Simulation time: 0 hr 6 min 19 sec) 
Heartbeat CPU 0 instructions: 180000002 cycles: 117877760 heartbeat IPC: 1.00827 cumulative IPC: 1.01759 (Simulation time: 0 hr 6 min 38 sec) 
Heartbeat CPU 0 instructions: 190000003 cycles: 127826338 heartbeat IPC: 1.00517 cumulative IPC: 1.0162 (Simulation time: 0 hr 6 min 56 sec) 
Heartbeat CPU 0 instructions: 200000000 cycles: 137932486 heartbeat IPC: 0.989496 cumulative IPC: 1.01346 (Simulation time: 0 hr 7 min 15 sec) 
Heartbeat CPU 0 instructions: 210000002 cycles: 147790856 heartbeat IPC: 1.01437 cumulative IPC: 1.01355 (Simulation time: 0 hr 7 min 33 sec) 
Heartbeat CPU 0 instructions: 220000000 cycles: 157831814 heartbeat IPC: 0.995921 cumulative IPC: 1.01205 (Simulation time: 0 hr 7 min 52 sec) 
Heartbeat CPU 0 instructions: 230000003 cycles: 167833607 heartbeat IPC: 0.999821 cumulative IPC: 1.0111 (Simulation time: 0 hr 8 min 10 sec) 
Heartbeat CPU 0 instructions: 240000000 cycles: 177688676 heartbeat IPC: 1.01471 cumulative IPC: 1.01136 (Simulation time: 0 hr 8 min 28 sec) 
Heartbeat CPU 0 instructions: 250000000 cycles: 187481909 heartbeat IPC: 1.02111 cumulative IPC: 1.012 (Simulation time: 0 hr 8 min 47 sec) 
Heartbeat CPU 0 instructions: 260000000 cycles: 197272563 heartbeat IPC: 1.02138 cumulative IPC: 1.01258 (Simulation time: 0 hr 9 min 5 sec) 
Heartbeat CPU 0 instructions: 270000003 cycles: 207064040 heartbeat IPC: 1.0213 cumulative IPC: 1.01309 (Simulation time: 0 hr 9 min 23 sec) 
Heartbeat CPU 0 instructions: 280000002 cycles: 217035964 heartbeat IPC: 1.00282 cumulative IPC: 1.01252 (Simulation time: 0 hr 9 min 41 sec) 
Heartbeat CPU 0 instructions: 290000000 cycles: 226950408 heartbeat IPC: 1.00863 cumulative IPC: 1.01231 (Simulation time: 0 hr 10 min 0 sec) 
Heartbeat CPU 0 instructions: 300000002 cycles: 236820232 heartbeat IPC: 1.01319 cumulative IPC: 1.01235 (Simulation time: 0 hr 10 min 17 sec) 
Heartbeat CPU 0 instructions: 310000000 cycles: 246719327 heartbeat IPC: 1.01019 cumulative IPC: 1.01225 (Simulation time: 0 hr 10 min 35 sec) 
Heartbeat CPU 0 instructions: 320000000 cycles: 256764943 heartbeat IPC: 0.995459 cumulative IPC: 1.01148 (Simulation time: 0 hr 10 min 53 sec) 
Heartbeat CPU 0 instructions: 330000000 cycles: 266866211 heartbeat IPC: 0.989975 cumulative IPC: 1.01052 (Simulation time: 0 hr 11 min 11 sec) 
Heartbeat CPU 0 instructions: 340000003 cycles: 276750550 heartbeat IPC: 1.0117 cumulative IPC: 1.01057 (Simulation time: 0 hr 11 min 28 sec) 
Heartbeat CPU 0 instructions: 350000000 cycles: 286652049 heartbeat IPC: 1.00995 cumulative IPC: 1.01055 (Simulation time: 0 hr 11 min 45 sec) 
Heartbeat CPU 0 instructions: 360000003 cycles: 296523477 heartbeat IPC: 1.01302 cumulative IPC: 1.01064 (Simulation time: 0 hr 12 min 3 sec) 
Heartbeat CPU 0 instructions: 370000000 cycles: 306430398 heartbeat IPC: 1.0094 cumulative IPC: 1.01059 (Simulation time: 0 hr 12 min 20 sec) 
Heartbeat CPU 0 instructions: 380000003 cycles: 316319960 heartbeat IPC: 1.01117 cumulative IPC: 1.01062 (Simulation time: 0 hr 12 min 38 sec) 
Heartbeat CPU 0 instructions: 390000002 cycles: 326258949 heartbeat IPC: 1.00614 cumulative IPC: 1.01046 (Simulation time: 0 hr 12 min 56 sec) 
Heartbeat CPU 0 instructions: 400000000 cycles: 336237902 heartbeat IPC: 1.00211 cumulative IPC: 1.01018 (Simulation time: 0 hr 13 min 14 sec) 
Heartbeat CPU 0 instructions: 410000001 cycles: 346428652 heartbeat IPC: 0.981282 cumulative IPC: 1.00922 (Simulation time: 0 hr 13 min 31 sec) 
Heartbeat CPU 0 instructions: 420000003 cycles: 356405733 heartbeat IPC: 1.0023 cumulative IPC: 1.009 (Simulation time: 0 hr 13 min 49 sec) 
Heartbeat CPU 0 instructions: 430000001 cycles: 366450454 heartbeat IPC: 0.995548 cumulative IPC: 1.00859 (Simulation time: 0 hr 14 min 6 sec) 
Heartbeat CPU 0 instructions: 440000000 cycles: 376415130 heartbeat IPC: 1.00354 cumulative IPC: 1.00844 (Simulation time: 0 hr 14 min 24 sec) 
Heartbeat CPU 0 instructions: 450000003 cycles: 386517763 heartbeat IPC: 0.989841 cumulative IPC: 1.0079 (Simulation time: 0 hr 14 min 42 sec) 
Heartbeat CPU 0 instructions: 460000003 cycles: 396652625 heartbeat IPC: 0.986693 cumulative IPC: 1.0073 (Simulation time: 0 hr 14 min 59 sec) 
Heartbeat CPU 0 instructions: 470000000 cycles: 406832654 heartbeat IPC: 0.982315 cumulative IPC: 1.00661 (Simulation time: 0 hr 15 min 17 sec) 
Heartbeat CPU 0 instructions: 480000001 cycles: 416989943 heartbeat IPC: 0.984515 cumulative IPC: 1.00601 (Simulation time: 0 hr 15 min 35 sec) 
Heartbeat CPU 0 instructions: 490000000 cycles: 426796518 heartbeat IPC: 1.01972 cumulative IPC: 1.00636 (Simulation time: 0 hr 15 min 52 sec) 
Heartbeat CPU 0 instructions: 500000001 cycles: 436562214 heartbeat IPC: 1.02399 cumulative IPC: 1.00679 (Simulation time: 0 hr 16 min 10 sec) 
Heartbeat CPU 0 instructions: 510000000 cycles: 446256791 heartbeat IPC: 1.0315 cumulative IPC: 1.00738 (Simulation time: 0 hr 16 min 28 sec) 
Heartbeat CPU 0 instructions: 520000001 cycles: 455967471 heartbeat IPC: 1.02979 cumulative IPC: 1.0079 (Simulation time: 0 hr 16 min 46 sec) 
Heartbeat CPU 0 instructions: 530000001 cycles: 465791765 heartbeat IPC: 1.01788 cumulative IPC: 1.00813 (Simulation time: 0 hr 17 min 4 sec) 
Heartbeat CPU 0 instructions: 540000003 cycles: 475608092 heartbeat IPC: 1.01871 cumulative IPC: 1.00837 (Simulation time: 0 hr 17 min 22 sec) 
Heartbeat CPU 0 instructions: 550000000 cycles: 485362897 heartbeat IPC: 1.02514 cumulative IPC: 1.00874 (Simulation time: 0 hr 17 min 39 sec) 
Heartbeat CPU 0 instructions: 560000002 cycles: 495078140 heartbeat IPC: 1.02931 cumulative IPC: 1.00918 (Simulation time: 0 hr 17 min 57 sec) 
Heartbeat CPU 0 instructions: 570000000 cycles: 504689791 heartbeat IPC: 1.0404 cumulative IPC: 1.00982 (Simulation time: 0 hr 18 min 15 sec) 
Heartbeat CPU 0 instructions: 580000000 cycles: 514436403 heartbeat IPC: 1.026 cumulative IPC: 1.01015 (Simulation time: 0 hr 18 min 34 sec) 
Heartbeat CPU 0 instructions: 590000000 cycles: 524298329 heartbeat IPC: 1.014 cumulative IPC: 1.01023 (Simulation time: 0 hr 18 min 51 sec) 
Heartbeat CPU 0 instructions: 600000000 cycles: 534056775 heartbeat IPC: 1.02475 cumulative IPC: 1.01052 (Simulation time: 0 hr 19 min 9 sec) 
Heartbeat CPU 0 instructions: 610000002 cycles: 543939569 heartbeat IPC: 1.01186 cumulative IPC: 1.01054 (Simulation time: 0 hr 19 min 27 sec) 
Heartbeat CPU 0 instructions: 620000001 cycles: 553752069 heartbeat IPC: 1.01911 cumulative IPC: 1.01071 (Simulation time: 0 hr 19 min 45 sec) 
Heartbeat CPU 0 instructions: 630000000 cycles: 563520699 heartbeat IPC: 1.02368 cumulative IPC: 1.01095 (Simulation time: 0 hr 20 min 3 sec) 
Heartbeat CPU 0 instructions: 640000001 cycles: 573272301 heartbeat IPC: 1.02547 cumulative IPC: 1.01121 (Simulation time: 0 hr 20 min 21 sec) 
Heartbeat CPU 0 instructions: 650000000 cycles: 583027579 heartbeat IPC: 1.02509 cumulative IPC: 1.01146 (Simulation time: 0 hr 20 min 39 sec) 
Heartbeat CPU 0 instructions: 660000000 cycles: 592737282 heartbeat IPC: 1.0299 cumulative IPC: 1.01179 (Simulation time: 0 hr 20 min 57 sec) 
Heartbeat CPU 0 instructions: 670000000 cycles: 602317526 heartbeat IPC: 1.04381 cumulative IPC: 1.01233 (Simulation time: 0 hr 21 min 15 sec) 
Heartbeat CPU 0 instructions: 680000002 cycles: 612041098 heartbeat IPC: 1.02843 cumulative IPC: 1.0126 (Simulation time: 0 hr 21 min 33 sec) 
Heartbeat CPU 0 instructions: 690000001 cycles: 621905210 heartbeat IPC: 1.01378 cumulative IPC: 1.01262 (Simulation time: 0 hr 21 min 50 sec) 
Heartbeat CPU 0 instructions: 700000000 cycles: 631829798 heartbeat IPC: 1.0076 cumulative IPC: 1.01254 (Simulation time: 0 hr 22 min 8 sec) 
Heartbeat CPU 0 instructions: 710000001 cycles: 641529698 heartbeat IPC: 1.03094 cumulative IPC: 1.01284 (Simulation time: 0 hr 22 min 26 sec) 
Heartbeat CPU 0 instructions: 720000000 cycles: 651244351 heartbeat IPC: 1.02937 cumulative IPC: 1.0131 (Simulation time: 0 hr 22 min 44 sec) 
Heartbeat CPU 0 instructions: 730000000 cycles: 660948327 heartbeat IPC: 1.03051 cumulative IPC: 1.01337 (Simulation time: 0 hr 23 min 1 sec) 
Heartbeat CPU 0 instructions: 740000000 cycles: 670686165 heartbeat IPC: 1.02692 cumulative IPC: 1.01358 (Simulation time: 0 hr 23 min 19 sec) 
Heartbeat CPU 0 instructions: 750000000 cycles: 680478937 heartbeat IPC: 1.02116 cumulative IPC: 1.0137 (Simulation time: 0 hr 23 min 37 sec) 
Heartbeat CPU 0 instructions: 760000001 cycles: 690236880 heartbeat IPC: 1.02481 cumulative IPC: 1.01386 (Simulation time: 0 hr 23 min 55 sec) 
Heartbeat CPU 0 instructions: 770000000 cycles: 700131495 heartbeat IPC: 1.01065 cumulative IPC: 1.01381 (Simulation time: 0 hr 24 min 12 sec) 
Heartbeat CPU 0 instructions: 780000000 cycles: 710117783 heartbeat IPC: 1.00137 cumulative IPC: 1.01363 (Simulation time: 0 hr 24 min 30 sec) 
Heartbeat CPU 0 instructions: 790000001 cycles: 720012264 heartbeat IPC: 1.01066 cumulative IPC: 1.01359 (Simulation time: 0 hr 24 min 48 sec) 
Heartbeat CPU 0 instructions: 800000001 cycles: 729812378 heartbeat IPC: 1.0204 cumulative IPC: 1.01368 (Simulation time: 0 hr 25 min 5 sec) 
Heartbeat CPU 0 instructions: 810000000 cycles: 739555530 heartbeat IPC: 1.02636 cumulative IPC: 1.01386 (Simulation time: 0 hr 25 min 23 sec) 
Heartbeat CPU 0 instructions: 820000000 cycles: 749241029 heartbeat IPC: 1.03247 cumulative IPC: 1.01411 (Simulation time: 0 hr 25 min 41 sec) 
Heartbeat CPU 0 instructions: 830000000 cycles: 758825518 heartbeat IPC: 1.04335 cumulative IPC: 1.0145 (Simulation time: 0 hr 25 min 59 sec) 
Heartbeat CPU 0 instructions: 840000000 cycles: 768512125 heartbeat IPC: 1.03235 cumulative IPC: 1.01474 (Simulation time: 0 hr 26 min 17 sec) 
Heartbeat CPU 0 instructions: 850000000 cycles: 778411291 heartbeat IPC: 1.01019 cumulative IPC: 1.01468 (Simulation time: 0 hr 26 min 35 sec) 
Heartbeat CPU 0 instructions: 860000000 cycles: 788323892 heartbeat IPC: 1.00882 cumulative IPC: 1.0146 (Simulation time: 0 hr 26 min 53 sec) 
Heartbeat CPU 0 instructions: 870000000 cycles: 798099025 heartbeat IPC: 1.023 cumulative IPC: 1.01471 (Simulation time: 0 hr 27 min 11 sec) 
Heartbeat CPU 0 instructions: 880000000 cycles: 807975262 heartbeat IPC: 1.01253 cumulative IPC: 1.01468 (Simulation time: 0 hr 27 min 29 sec) 
Heartbeat CPU 0 instructions: 890000003 cycles: 817916649 heartbeat IPC: 1.0059 cumulative IPC: 1.01457 (Simulation time: 0 hr 27 min 47 sec) 
Heartbeat CPU 0 instructions: 900000000 cycles: 827850966 heartbeat IPC: 1.00661 cumulative IPC: 1.01447 (Simulation time: 0 hr 28 min 5 sec) 
Heartbeat CPU 0 instructions: 910000002 cycles: 837822685 heartbeat IPC: 1.00284 cumulative IPC: 1.01432 (Simulation time: 0 hr 28 min 23 sec) 
Heartbeat CPU 0 instructions: 920000002 cycles: 847765146 heartbeat IPC: 1.00579 cumulative IPC: 1.01422 (Simulation time: 0 hr 28 min 41 sec) 
Heartbeat CPU 0 instructions: 930000001 cycles: 857623465 heartbeat IPC: 1.01437 cumulative IPC: 1.01422 (Simulation time: 0 hr 29 min 0 sec) 
Heartbeat CPU 0 instructions: 940000000 cycles: 867537802 heartbeat IPC: 1.00864 cumulative IPC: 1.01415 (Simulation time: 0 hr 29 min 17 sec) 
Heartbeat CPU 0 instructions: 950000000 cycles: 877428584 heartbeat IPC: 1.01104 cumulative IPC: 1.01412 (Simulation time: 0 hr 29 min 35 sec) 
Heartbeat CPU 0 instructions: 960000001 cycles: 887280030 heartbeat IPC: 1.01508 cumulative IPC: 1.01413 (Simulation time: 0 hr 29 min 53 sec) 
Heartbeat CPU 0 instructions: 970000002 cycles: 897138343 heartbeat IPC: 1.01437 cumulative IPC: 1.01413 (Simulation time: 0 hr 30 min 10 sec) 
Heartbeat CPU 0 instructions: 980000000 cycles: 906992031 heartbeat IPC: 1.01485 cumulative IPC: 1.01414 (Simulation time: 0 hr 30 min 28 sec) 
Heartbeat CPU 0 instructions: 990000000 cycles: 916747226 heartbeat IPC: 1.02509 cumulative IPC: 1.01426 (Simulation time: 0 hr 30 min 45 sec) 
Heartbeat CPU 0 instructions: 1000000002 cycles: 926839851 heartbeat IPC: 0.990823 cumulative IPC: 1.01399 (Simulation time: 0 hr 31 min 3 sec) 
Heartbeat CPU 0 instructions: 1010000003 cycles: 936632946 heartbeat IPC: 1.02113 cumulative IPC: 1.01407 (Simulation time: 0 hr 31 min 21 sec) 
Heartbeat CPU 0 instructions: 1020000001 cycles: 946516636 heartbeat IPC: 1.01177 cumulative IPC: 1.01405 (Simulation time: 0 hr 31 min 38 sec) 
Heartbeat CPU 0 instructions: 1030000001 cycles: 956464828 heartbeat IPC: 1.00521 cumulative IPC: 1.01395 (Simulation time: 0 hr 31 min 56 sec) 
Heartbeat CPU 0 instructions: 1040000003 cycles: 966471955 heartbeat IPC: 0.999288 cumulative IPC: 1.01379 (Simulation time: 0 hr 32 min 14 sec) 
Heartbeat CPU 0 instructions: 1050000002 cycles: 976417603 heartbeat IPC: 1.00546 cumulative IPC: 1.0137 (Simulation time: 0 hr 32 min 32 sec) 
Heartbeat CPU 0 instructions: 1060000000 cycles: 986482791 heartbeat IPC: 0.993523 cumulative IPC: 1.01349 (Simulation time: 0 hr 32 min 49 sec) 
Heartbeat CPU 0 instructions: 1070000000 cycles: 996527029 heartbeat IPC: 0.995596 cumulative IPC: 1.0133 (Simulation time: 0 hr 33 min 6 sec) 
Heartbeat CPU 0 instructions: 1080000003 cycles: 1006562216 heartbeat IPC: 0.996494 cumulative IPC: 1.01313 (Simulation time: 0 hr 33 min 24 sec) 
Heartbeat CPU 0 instructions: 1090000001 cycles: 1016504373 heartbeat IPC: 1.00582 cumulative IPC: 1.01305 (Simulation time: 0 hr 33 min 42 sec) 
Heartbeat CPU 0 instructions: 1100000000 cycles: 1026346942 heartbeat IPC: 1.01599 cumulative IPC: 1.01308 (Simulation time: 0 hr 34 min 0 sec) 
Finished CPU 0 instructions: 1000000000 cycles: 987085981 cumulative IPC: 1.01308 (Simulation time: 0 hr 34 min 0 sec) 

ChampSim completed all CPUs

Region of Interest Statistics

CPU 0 cumulative IPC: 1.01308 instructions: 1000000000 cycles: 987085981
L1D TOTAL     ACCESS:  298881006  HIT:  297535315  MISS:    1345691
L1D LOAD      ACCESS:  182737822  HIT:  181802409  MISS:     935413
L1D RFO       ACCESS:  116143184  HIT:  115732906  MISS:     410278
L1D PREFETCH  ACCESS:          0  HIT:          0  MISS:          0
L1D WRITEBACK ACCESS:          0  HIT:          0  MISS:          0
L1D PREFETCH  REQUESTED:          0  ISSUED:          0  USEFUL:          0  USELESS:          0
L1D AVERAGE MISS LATENCY: 53.8656 cycles
L1I TOTAL     ACCESS:  174284136  HIT:  173328470  MISS:     955666
L1I LOAD      ACCESS:  174284136  HIT:  173328470  MISS:     955666
L1I RFO       ACCESS:          0  HIT:          0  MISS:          0
L1I PREFETCH  ACCESS:          0  HIT:          0  MISS:          0
L1I WRITEBACK ACCESS:          0  HIT:          0  MISS:          0
L1I PREFETCH  REQUESTED:          0  ISSUED:          0  USEFUL:          0  USELESS:          0
L1I AVERAGE MISS LATENCY: 13.1458 cycles
L2C TOTAL     ACCESS:    2969351  HIT:    2662338  MISS:     307013
L2C LOAD      ACCESS:    1891044  HIT:    1601398  MISS:     289646
L2C RFO       ACCESS:     410214  HIT:     393562  MISS:      16652
L2C PREFETCH  ACCESS:          0  HIT:          0  MISS:          0
L2C WRITEBACK ACCESS:     668093  HIT:     667378  MISS:        715
L2C PREFETCH  REQUESTED:          0  ISSUED:          0  USEFUL:          0  USELESS:          0
L2C AVERAGE MISS LATENCY: 181.964 cycles
LLC TOTAL     ACCESS:     513867  HIT:      87403  MISS:     426464
LLC LOAD      ACCESS:     289646  HIT:      21368  MISS:     268278
LLC RFO       ACCESS:      16652  HIT:      14416  MISS:       2236
LLC PREFETCH  ACCESS:          0  HIT:          0  MISS:          0
LLC WRITEBACK ACCESS:     207569  HIT:      51619  MISS:     155950
LLC PREFETCH  REQUESTED:          0  ISSUED:          0  USEFUL:          0  USELESS:          0
LLC AVERAGE MISS LATENCY: 102.194 cycles
Major fault: 0 Minor fault: 161415
==============================
Perceptron RRIP Stats:
   Num Updates:          14675
   Num Primary Trains:   312
   Num Secondary Trains: 319
==============================
primary_perceptron #0: -2 -4 2 0 -2 0 0 -2 0 2 2 2 0 0 -2 -14 
secondary_perceptron #0: -5 -1 3 1 -1 3 1 -3 -1 -1 3 1 1 -1 1 1 1 1 -1 1 -19 


DRAM Statistics
 CHANNEL 0
 RQ ROW_BUFFER_HIT:      62629  ROW_BUFFER_MISS:     207885
 DBUS_CONGESTED:      49386
 WQ ROW_BUFFER_HIT:       5009  ROW_BUFFER_MISS:     176716  FULL:          0

 AVG_CONGESTED_CYCLE: 6

CPU 0 Branch Prediction Accuracy: 90.7181% MPKI: 13.7272 Average ROB Occupancy at Mispredict: 30.4441

Branch types
NOT_BRANCH: 852108097 85.2108%
BRANCH_DIRECT_JUMP: 8658948 0.865895%
BRANCH_INDIRECT: 862270 0.086227%
BRANCH_CONDITIONAL: 98627220 9.86272%
BRANCH_DIRECT_CALL: 19871562 1.98716%
BRANCH_INDIRECT_CALL: 0 0%
BRANCH_RETURN: 19871559 1.98716%
BRANCH_OTHER: 0 0%

