
*** ChampSim Multicore Out-of-Order Simulator ***

Warmup Instructions: 100000000
Simulation Instructions: 1000000000
Number of CPUs: 1
LLC sets: 2048
LLC ways: 16
Off-chip DRAM Size: 4096 MB Channels: 1 Width: 64-bit Data Rate: 3200 MT/s

CPU 0 runs /scratch/user/kevin.weston/dpc3-traces/638.champsimtrace.xz
CPU 0 Bimodal branch predictor
Per-line RRPV Initialized
PRRIP State Initialized
Assign SAMPLER_SET[0]: 454  LLC: 2048
SAMPLER_SET[0]: 454
Assign SAMPLER_SET[1]: 1662  LLC: 2048
SAMPLER_SET[1]: 1662
Assign SAMPLER_SET[2]: 1921  LLC: 2048
SAMPLER_SET[2]: 1921
Assign SAMPLER_SET[3]: 1131  LLC: 2048
SAMPLER_SET[3]: 1131
Assign SAMPLER_SET[4]: 331  LLC: 2048
SAMPLER_SET[4]: 331
Assign SAMPLER_SET[5]: 1531  LLC: 2048
SAMPLER_SET[5]: 1531
Assign SAMPLER_SET[6]: 482  LLC: 2048
SAMPLER_SET[6]: 482
Assign SAMPLER_SET[7]: 1275  LLC: 2048
SAMPLER_SET[7]: 1275
Assign SAMPLER_SET[8]: 1876  LLC: 2048
SAMPLER_SET[8]: 1876
Assign SAMPLER_SET[9]: 2038  LLC: 2048
SAMPLER_SET[9]: 2038
Assign SAMPLER_SET[10]: 701  LLC: 2048
SAMPLER_SET[10]: 701
Assign SAMPLER_SET[11]: 479  LLC: 2048
SAMPLER_SET[11]: 479
Assign SAMPLER_SET[12]: 892  LLC: 2048
SAMPLER_SET[12]: 892
Assign SAMPLER_SET[13]: 1820  LLC: 2048
SAMPLER_SET[13]: 1820
Assign SAMPLER_SET[14]: 1505  LLC: 2048
SAMPLER_SET[14]: 1505
Assign SAMPLER_SET[15]: 1159  LLC: 2048
SAMPLER_SET[15]: 1159
Assign SAMPLER_SET[16]: 513  LLC: 2048
SAMPLER_SET[16]: 513
Assign SAMPLER_SET[17]: 703  LLC: 2048
SAMPLER_SET[17]: 703
Assign SAMPLER_SET[18]: 561  LLC: 2048
SAMPLER_SET[18]: 561
Assign SAMPLER_SET[19]: 990  LLC: 2048
SAMPLER_SET[19]: 990
Assign SAMPLER_SET[20]: 342  LLC: 2048
SAMPLER_SET[20]: 342
Assign SAMPLER_SET[21]: 882  LLC: 2048
SAMPLER_SET[21]: 882
Assign SAMPLER_SET[22]: 15  LLC: 2048
SAMPLER_SET[22]: 15
Assign SAMPLER_SET[23]: 71  LLC: 2048
SAMPLER_SET[23]: 71
Assign SAMPLER_SET[24]: 1127  LLC: 2048
SAMPLER_SET[24]: 1127
Assign SAMPLER_SET[25]: 1382  LLC: 2048
SAMPLER_SET[25]: 1382
Assign SAMPLER_SET[26]: 647  LLC: 2048
SAMPLER_SET[26]: 647
Assign SAMPLER_SET[27]: 857  LLC: 2048
SAMPLER_SET[27]: 857
Assign SAMPLER_SET[28]: 1450  LLC: 2048
SAMPLER_SET[28]: 1450
Assign SAMPLER_SET[29]: 1160  LLC: 2048
SAMPLER_SET[29]: 1160
Assign SAMPLER_SET[30]: 1852  LLC: 2048
SAMPLER_SET[30]: 1852
Assign SAMPLER_SET[31]: 1881  LLC: 2048
SAMPLER_SET[31]: 1881
Assign SAMPLER_SET[32]: 1770  LLC: 2048
SAMPLER_SET[32]: 1770
Assign SAMPLER_SET[33]: 1622  LLC: 2048
SAMPLER_SET[33]: 1622
Assign SAMPLER_SET[34]: 275  LLC: 2048
SAMPLER_SET[34]: 275
Assign SAMPLER_SET[35]: 635  LLC: 2048
SAMPLER_SET[35]: 635
Assign SAMPLER_SET[36]: 466  LLC: 2048
SAMPLER_SET[36]: 466
Assign SAMPLER_SET[37]: 1413  LLC: 2048
SAMPLER_SET[37]: 1413
Assign SAMPLER_SET[38]: 417  LLC: 2048
SAMPLER_SET[38]: 417
Assign SAMPLER_SET[39]: 472  LLC: 2048
SAMPLER_SET[39]: 472
Assign SAMPLER_SET[40]: 1340  LLC: 2048
SAMPLER_SET[40]: 1340
Assign SAMPLER_SET[41]: 852  LLC: 2048
SAMPLER_SET[41]: 852
Assign SAMPLER_SET[42]: 1365  LLC: 2048
SAMPLER_SET[42]: 1365
Assign SAMPLER_SET[43]: 47  LLC: 2048
SAMPLER_SET[43]: 47
Assign SAMPLER_SET[44]: 823  LLC: 2048
SAMPLER_SET[44]: 823
Assign SAMPLER_SET[45]: 686  LLC: 2048
SAMPLER_SET[45]: 686
Assign SAMPLER_SET[46]: 1637  LLC: 2048
SAMPLER_SET[46]: 1637
Assign SAMPLER_SET[47]: 1115  LLC: 2048
SAMPLER_SET[47]: 1115
Assign SAMPLER_SET[48]: 986  LLC: 2048
SAMPLER_SET[48]: 986
Assign SAMPLER_SET[49]: 258  LLC: 2048
SAMPLER_SET[49]: 258
Assign SAMPLER_SET[50]: 633  LLC: 2048
SAMPLER_SET[50]: 633
Assign SAMPLER_SET[51]: 920  LLC: 2048
SAMPLER_SET[51]: 920
Assign SAMPLER_SET[52]: 204  LLC: 2048
SAMPLER_SET[52]: 204
Assign SAMPLER_SET[53]: 227  LLC: 2048
SAMPLER_SET[53]: 227
Assign SAMPLER_SET[54]: 1818  LLC: 2048
SAMPLER_SET[54]: 1818
Assign SAMPLER_SET[55]: 886  LLC: 2048
SAMPLER_SET[55]: 886
Assign SAMPLER_SET[56]: 1422  LLC: 2048
SAMPLER_SET[56]: 1422
Assign SAMPLER_SET[57]: 607  LLC: 2048
SAMPLER_SET[57]: 607
Assign SAMPLER_SET[58]: 217  LLC: 2048
SAMPLER_SET[58]: 217
Assign SAMPLER_SET[59]: 1945  LLC: 2048
SAMPLER_SET[59]: 1945
Assign SAMPLER_SET[60]: 143  LLC: 2048
SAMPLER_SET[60]: 143
Assign SAMPLER_SET[61]: 1311  LLC: 2048
SAMPLER_SET[61]: 1311
Assign SAMPLER_SET[62]: 319  LLC: 2048
SAMPLER_SET[62]: 319
Assign SAMPLER_SET[63]: 1846  LLC: 2048
SAMPLER_SET[63]: 1846
Heartbeat CPU 0 instructions: 10000001 cycles: 2861601 heartbeat IPC: 3.49455 cumulative IPC: 3.49455 (Simulation time: 0 hr 0 min 16 sec) 
Heartbeat CPU 0 instructions: 20000002 cycles: 5722969 heartbeat IPC: 3.49483 cumulative IPC: 3.49469 (Simulation time: 0 hr 0 min 32 sec) 
Heartbeat CPU 0 instructions: 30000000 cycles: 8584364 heartbeat IPC: 3.4948 cumulative IPC: 3.49473 (Simulation time: 0 hr 0 min 47 sec) 
Heartbeat CPU 0 instructions: 40000001 cycles: 11445849 heartbeat IPC: 3.49469 cumulative IPC: 3.49472 (Simulation time: 0 hr 1 min 3 sec) 
Heartbeat CPU 0 instructions: 50000000 cycles: 14307336 heartbeat IPC: 3.49469 cumulative IPC: 3.49471 (Simulation time: 0 hr 1 min 19 sec) 
Heartbeat CPU 0 instructions: 60000000 cycles: 17168694 heartbeat IPC: 3.49484 cumulative IPC: 3.49473 (Simulation time: 0 hr 1 min 35 sec) 
Heartbeat CPU 0 instructions: 70000003 cycles: 20030062 heartbeat IPC: 3.49483 cumulative IPC: 3.49475 (Simulation time: 0 hr 1 min 51 sec) 
Heartbeat CPU 0 instructions: 80000001 cycles: 22891526 heartbeat IPC: 3.49471 cumulative IPC: 3.49474 (Simulation time: 0 hr 2 min 7 sec) 
Heartbeat CPU 0 instructions: 90000001 cycles: 25752950 heartbeat IPC: 3.49476 cumulative IPC: 3.49475 (Simulation time: 0 hr 2 min 22 sec) 
Heartbeat CPU 0 instructions: 100000002 cycles: 28614375 heartbeat IPC: 3.49476 cumulative IPC: 3.49475 (Simulation time: 0 hr 2 min 38 sec) 

Warmup complete CPU 0 instructions: 100000002 cycles: 28614375 (Simulation time: 0 hr 2 min 38 sec) 

Heartbeat CPU 0 instructions: 110000000 cycles: 32950091 heartbeat IPC: 2.30642 cumulative IPC: 2.30642 (Simulation time: 0 hr 2 min 51 sec) 
Heartbeat CPU 0 instructions: 120000000 cycles: 37289483 heartbeat IPC: 2.30447 cumulative IPC: 2.30545 (Simulation time: 0 hr 3 min 3 sec) 
Heartbeat CPU 0 instructions: 130000003 cycles: 41625247 heartbeat IPC: 2.3064 cumulative IPC: 2.30576 (Simulation time: 0 hr 3 min 16 sec) 
Heartbeat CPU 0 instructions: 140000002 cycles: 45956779 heartbeat IPC: 2.30865 cumulative IPC: 2.30649 (Simulation time: 0 hr 3 min 28 sec) 
Heartbeat CPU 0 instructions: 150000000 cycles: 50284418 heartbeat IPC: 2.31073 cumulative IPC: 2.30733 (Simulation time: 0 hr 3 min 41 sec) 
Heartbeat CPU 0 instructions: 160000003 cycles: 54598630 heartbeat IPC: 2.31792 cumulative IPC: 2.30909 (Simulation time: 0 hr 3 min 53 sec) 
Heartbeat CPU 0 instructions: 170000000 cycles: 58904286 heartbeat IPC: 2.32253 cumulative IPC: 2.311 (Simulation time: 0 hr 4 min 5 sec) 
Heartbeat CPU 0 instructions: 180000000 cycles: 63194021 heartbeat IPC: 2.33115 cumulative IPC: 2.3135 (Simulation time: 0 hr 4 min 18 sec) 
Heartbeat CPU 0 instructions: 190000002 cycles: 67469806 heartbeat IPC: 2.33875 cumulative IPC: 2.31628 (Simulation time: 0 hr 4 min 30 sec) 
Heartbeat CPU 0 instructions: 200000000 cycles: 71727827 heartbeat IPC: 2.34851 cumulative IPC: 2.31946 (Simulation time: 0 hr 4 min 42 sec) 
Heartbeat CPU 0 instructions: 210000003 cycles: 75970119 heartbeat IPC: 2.35722 cumulative IPC: 2.32284 (Simulation time: 0 hr 4 min 54 sec) 
Heartbeat CPU 0 instructions: 220000000 cycles: 80202767 heartbeat IPC: 2.36259 cumulative IPC: 2.3261 (Simulation time: 0 hr 5 min 6 sec) 
Heartbeat CPU 0 instructions: 230000002 cycles: 84434171 heartbeat IPC: 2.36328 cumulative IPC: 2.32892 (Simulation time: 0 hr 5 min 17 sec) 
Heartbeat CPU 0 instructions: 240000001 cycles: 88666227 heartbeat IPC: 2.36292 cumulative IPC: 2.33132 (Simulation time: 0 hr 5 min 29 sec) 
Heartbeat CPU 0 instructions: 250000000 cycles: 92898169 heartbeat IPC: 2.36298 cumulative IPC: 2.3334 (Simulation time: 0 hr 5 min 40 sec) 
Heartbeat CPU 0 instructions: 260000003 cycles: 97132282 heartbeat IPC: 2.36177 cumulative IPC: 2.33516 (Simulation time: 0 hr 5 min 52 sec) 
Heartbeat CPU 0 instructions: 270000002 cycles: 101366349 heartbeat IPC: 2.3618 cumulative IPC: 2.33671 (Simulation time: 0 hr 6 min 3 sec) 
Heartbeat CPU 0 instructions: 280000003 cycles: 105600838 heartbeat IPC: 2.36156 cumulative IPC: 2.33807 (Simulation time: 0 hr 6 min 15 sec) 
Heartbeat CPU 0 instructions: 290000001 cycles: 109833077 heartbeat IPC: 2.36282 cumulative IPC: 2.33936 (Simulation time: 0 hr 6 min 26 sec) 
Heartbeat CPU 0 instructions: 300000002 cycles: 114066239 heartbeat IPC: 2.3623 cumulative IPC: 2.3405 (Simulation time: 0 hr 6 min 38 sec) 
Heartbeat CPU 0 instructions: 310000003 cycles: 118301511 heartbeat IPC: 2.36112 cumulative IPC: 2.34147 (Simulation time: 0 hr 6 min 49 sec) 
Heartbeat CPU 0 instructions: 320000001 cycles: 122539236 heartbeat IPC: 2.35976 cumulative IPC: 2.3423 (Simulation time: 0 hr 7 min 1 sec) 
Heartbeat CPU 0 instructions: 330000000 cycles: 126776473 heartbeat IPC: 2.36003 cumulative IPC: 2.34306 (Simulation time: 0 hr 7 min 12 sec) 
Heartbeat CPU 0 instructions: 340000002 cycles: 131012669 heartbeat IPC: 2.36061 cumulative IPC: 2.34379 (Simulation time: 0 hr 7 min 24 sec) 
Heartbeat CPU 0 instructions: 350000000 cycles: 135249613 heartbeat IPC: 2.36019 cumulative IPC: 2.34444 (Simulation time: 0 hr 7 min 35 sec) 
Heartbeat CPU 0 instructions: 360000001 cycles: 139488650 heartbeat IPC: 2.35903 cumulative IPC: 2.345 (Simulation time: 0 hr 7 min 47 sec) 
Heartbeat CPU 0 instructions: 370000003 cycles: 143725325 heartbeat IPC: 2.36034 cumulative IPC: 2.34556 (Simulation time: 0 hr 7 min 58 sec) 
Heartbeat CPU 0 instructions: 380000001 cycles: 147961739 heartbeat IPC: 2.36049 cumulative IPC: 2.34609 (Simulation time: 0 hr 8 min 10 sec) 
Heartbeat CPU 0 instructions: 390000001 cycles: 152198556 heartbeat IPC: 2.36026 cumulative IPC: 2.34658 (Simulation time: 0 hr 8 min 22 sec) 
Heartbeat CPU 0 instructions: 400000002 cycles: 156436861 heartbeat IPC: 2.35943 cumulative IPC: 2.347 (Simulation time: 0 hr 8 min 33 sec) 
Heartbeat CPU 0 instructions: 410000002 cycles: 160673402 heartbeat IPC: 2.36042 cumulative IPC: 2.34744 (Simulation time: 0 hr 8 min 45 sec) 
Heartbeat CPU 0 instructions: 420000001 cycles: 164909359 heartbeat IPC: 2.36074 cumulative IPC: 2.34785 (Simulation time: 0 hr 8 min 56 sec) 
Heartbeat CPU 0 instructions: 430000003 cycles: 169146738 heartbeat IPC: 2.35995 cumulative IPC: 2.34821 (Simulation time: 0 hr 9 min 8 sec) 
Heartbeat CPU 0 instructions: 440000000 cycles: 173385238 heartbeat IPC: 2.35932 cumulative IPC: 2.34854 (Simulation time: 0 hr 9 min 19 sec) 
Heartbeat CPU 0 instructions: 450000000 cycles: 177622018 heartbeat IPC: 2.36028 cumulative IPC: 2.34887 (Simulation time: 0 hr 9 min 31 sec) 
Heartbeat CPU 0 instructions: 460000002 cycles: 181858720 heartbeat IPC: 2.36033 cumulative IPC: 2.34919 (Simulation time: 0 hr 9 min 43 sec) 
Heartbeat CPU 0 instructions: 470000003 cycles: 186095931 heartbeat IPC: 2.36004 cumulative IPC: 2.34948 (Simulation time: 0 hr 9 min 54 sec) 
Heartbeat CPU 0 instructions: 480000000 cycles: 190333445 heartbeat IPC: 2.35987 cumulative IPC: 2.34975 (Simulation time: 0 hr 10 min 6 sec) 
Heartbeat CPU 0 instructions: 490000001 cycles: 194572311 heartbeat IPC: 2.35912 cumulative IPC: 2.34999 (Simulation time: 0 hr 10 min 18 sec) 
Heartbeat CPU 0 instructions: 500000000 cycles: 198807897 heartbeat IPC: 2.36095 cumulative IPC: 2.35027 (Simulation time: 0 hr 10 min 29 sec) 
Heartbeat CPU 0 instructions: 510000000 cycles: 203043999 heartbeat IPC: 2.36066 cumulative IPC: 2.35052 (Simulation time: 0 hr 10 min 41 sec) 
Heartbeat CPU 0 instructions: 520000001 cycles: 207281743 heartbeat IPC: 2.35975 cumulative IPC: 2.35074 (Simulation time: 0 hr 10 min 52 sec) 
Heartbeat CPU 0 instructions: 530000000 cycles: 211520770 heartbeat IPC: 2.35903 cumulative IPC: 2.35093 (Simulation time: 0 hr 11 min 3 sec) 
Heartbeat CPU 0 instructions: 540000001 cycles: 215756464 heartbeat IPC: 2.36089 cumulative IPC: 2.35115 (Simulation time: 0 hr 11 min 15 sec) 
Heartbeat CPU 0 instructions: 550000000 cycles: 219992995 heartbeat IPC: 2.36042 cumulative IPC: 2.35136 (Simulation time: 0 hr 11 min 26 sec) 
Heartbeat CPU 0 instructions: 560000002 cycles: 224230385 heartbeat IPC: 2.35994 cumulative IPC: 2.35155 (Simulation time: 0 hr 11 min 38 sec) 
Heartbeat CPU 0 instructions: 570000001 cycles: 228469273 heartbeat IPC: 2.35911 cumulative IPC: 2.35171 (Simulation time: 0 hr 11 min 49 sec) 
Heartbeat CPU 0 instructions: 580000000 cycles: 232706874 heartbeat IPC: 2.35983 cumulative IPC: 2.35187 (Simulation time: 0 hr 12 min 1 sec) 
Heartbeat CPU 0 instructions: 590000002 cycles: 236943918 heartbeat IPC: 2.36014 cumulative IPC: 2.35204 (Simulation time: 0 hr 12 min 12 sec) 
Heartbeat CPU 0 instructions: 600000003 cycles: 241182857 heartbeat IPC: 2.35908 cumulative IPC: 2.35218 (Simulation time: 0 hr 12 min 24 sec) 
Heartbeat CPU 0 instructions: 610000001 cycles: 245423873 heartbeat IPC: 2.35793 cumulative IPC: 2.3523 (Simulation time: 0 hr 12 min 35 sec) 
Heartbeat CPU 0 instructions: 620000002 cycles: 249662355 heartbeat IPC: 2.35934 cumulative IPC: 2.35243 (Simulation time: 0 hr 12 min 47 sec) 
Heartbeat CPU 0 instructions: 630000001 cycles: 253902564 heartbeat IPC: 2.35837 cumulative IPC: 2.35254 (Simulation time: 0 hr 12 min 58 sec) 
Heartbeat CPU 0 instructions: 640000002 cycles: 258152598 heartbeat IPC: 2.35292 cumulative IPC: 2.35255 (Simulation time: 0 hr 13 min 10 sec) 
Heartbeat CPU 0 instructions: 650000001 cycles: 262419068 heartbeat IPC: 2.34386 cumulative IPC: 2.35239 (Simulation time: 0 hr 13 min 21 sec) 
Heartbeat CPU 0 instructions: 660000000 cycles: 266690351 heartbeat IPC: 2.34122 cumulative IPC: 2.35219 (Simulation time: 0 hr 13 min 33 sec) 
Heartbeat CPU 0 instructions: 670000001 cycles: 270968263 heartbeat IPC: 2.33759 cumulative IPC: 2.35193 (Simulation time: 0 hr 13 min 44 sec) 
Heartbeat CPU 0 instructions: 680000002 cycles: 275256687 heartbeat IPC: 2.33186 cumulative IPC: 2.35158 (Simulation time: 0 hr 13 min 56 sec) 
Heartbeat CPU 0 instructions: 690000002 cycles: 279547063 heartbeat IPC: 2.3308 cumulative IPC: 2.35123 (Simulation time: 0 hr 14 min 8 sec) 
Heartbeat CPU 0 instructions: 700000003 cycles: 283841902 heartbeat IPC: 2.32838 cumulative IPC: 2.35084 (Simulation time: 0 hr 14 min 20 sec) 
Heartbeat CPU 0 instructions: 710000000 cycles: 288136232 heartbeat IPC: 2.32865 cumulative IPC: 2.35048 (Simulation time: 0 hr 14 min 31 sec) 
Heartbeat CPU 0 instructions: 720000003 cycles: 292429863 heartbeat IPC: 2.32903 cumulative IPC: 2.35013 (Simulation time: 0 hr 14 min 43 sec) 
Heartbeat CPU 0 instructions: 730000001 cycles: 296722342 heartbeat IPC: 2.32966 cumulative IPC: 2.3498 (Simulation time: 0 hr 14 min 54 sec) 
Heartbeat CPU 0 instructions: 740000000 cycles: 301004686 heartbeat IPC: 2.33517 cumulative IPC: 2.34957 (Simulation time: 0 hr 15 min 6 sec) 
Heartbeat CPU 0 instructions: 750000001 cycles: 305290908 heartbeat IPC: 2.33306 cumulative IPC: 2.34931 (Simulation time: 0 hr 15 min 18 sec) 
Heartbeat CPU 0 instructions: 760000001 cycles: 309549186 heartbeat IPC: 2.34837 cumulative IPC: 2.3493 (Simulation time: 0 hr 15 min 29 sec) 
Heartbeat CPU 0 instructions: 770000000 cycles: 313816835 heartbeat IPC: 2.34321 cumulative IPC: 2.34921 (Simulation time: 0 hr 15 min 41 sec) 
Heartbeat CPU 0 instructions: 780000001 cycles: 318077339 heartbeat IPC: 2.34714 cumulative IPC: 2.34918 (Simulation time: 0 hr 15 min 52 sec) 
Heartbeat CPU 0 instructions: 790000003 cycles: 322338377 heartbeat IPC: 2.34685 cumulative IPC: 2.34914 (Simulation time: 0 hr 16 min 4 sec) 
Heartbeat CPU 0 instructions: 800000002 cycles: 326600356 heartbeat IPC: 2.34633 cumulative IPC: 2.3491 (Simulation time: 0 hr 16 min 15 sec) 
Heartbeat CPU 0 instructions: 810000003 cycles: 330848348 heartbeat IPC: 2.35405 cumulative IPC: 2.34917 (Simulation time: 0 hr 16 min 27 sec) 
Heartbeat CPU 0 instructions: 820000002 cycles: 335096188 heartbeat IPC: 2.35414 cumulative IPC: 2.34924 (Simulation time: 0 hr 16 min 39 sec) 
Heartbeat CPU 0 instructions: 830000000 cycles: 339338257 heartbeat IPC: 2.35734 cumulative IPC: 2.34935 (Simulation time: 0 hr 16 min 50 sec) 
Heartbeat CPU 0 instructions: 840000001 cycles: 343582686 heartbeat IPC: 2.35603 cumulative IPC: 2.34944 (Simulation time: 0 hr 17 min 2 sec) 
Heartbeat CPU 0 instructions: 850000002 cycles: 347841912 heartbeat IPC: 2.34784 cumulative IPC: 2.34942 (Simulation time: 0 hr 17 min 13 sec) 
Heartbeat CPU 0 instructions: 860000003 cycles: 352101918 heartbeat IPC: 2.34741 cumulative IPC: 2.3494 (Simulation time: 0 hr 17 min 25 sec) 
Heartbeat CPU 0 instructions: 870000000 cycles: 356363966 heartbeat IPC: 2.34629 cumulative IPC: 2.34935 (Simulation time: 0 hr 17 min 36 sec) 
Heartbeat CPU 0 instructions: 880000000 cycles: 360624205 heartbeat IPC: 2.34729 cumulative IPC: 2.34933 (Simulation time: 0 hr 17 min 48 sec) 
Heartbeat CPU 0 instructions: 890000001 cycles: 364879318 heartbeat IPC: 2.35011 cumulative IPC: 2.34934 (Simulation time: 0 hr 17 min 59 sec) 
Heartbeat CPU 0 instructions: 900000001 cycles: 369135366 heartbeat IPC: 2.3496 cumulative IPC: 2.34934 (Simulation time: 0 hr 18 min 11 sec) 
Heartbeat CPU 0 instructions: 910000002 cycles: 373388504 heartbeat IPC: 2.35121 cumulative IPC: 2.34936 (Simulation time: 0 hr 18 min 23 sec) 
Heartbeat CPU 0 instructions: 920000001 cycles: 377639941 heartbeat IPC: 2.35215 cumulative IPC: 2.3494 (Simulation time: 0 hr 18 min 35 sec) 
Heartbeat CPU 0 instructions: 930000002 cycles: 381885147 heartbeat IPC: 2.3556 cumulative IPC: 2.34947 (Simulation time: 0 hr 18 min 46 sec) 
Heartbeat CPU 0 instructions: 940000000 cycles: 386123534 heartbeat IPC: 2.35939 cumulative IPC: 2.34959 (Simulation time: 0 hr 18 min 58 sec) 
Heartbeat CPU 0 instructions: 950000000 cycles: 390363273 heartbeat IPC: 2.35864 cumulative IPC: 2.3497 (Simulation time: 0 hr 19 min 9 sec) 
Heartbeat CPU 0 instructions: 960000002 cycles: 394604833 heartbeat IPC: 2.35762 cumulative IPC: 2.34979 (Simulation time: 0 hr 19 min 21 sec) 
Heartbeat CPU 0 instructions: 970000002 cycles: 398850613 heartbeat IPC: 2.35528 cumulative IPC: 2.34985 (Simulation time: 0 hr 19 min 32 sec) 
Heartbeat CPU 0 instructions: 980000002 cycles: 403104794 heartbeat IPC: 2.35063 cumulative IPC: 2.34986 (Simulation time: 0 hr 19 min 44 sec) 
Heartbeat CPU 0 instructions: 990000000 cycles: 407367406 heartbeat IPC: 2.34598 cumulative IPC: 2.34982 (Simulation time: 0 hr 19 min 56 sec) 
Heartbeat CPU 0 instructions: 1000000003 cycles: 411628180 heartbeat IPC: 2.34699 cumulative IPC: 2.34978 (Simulation time: 0 hr 20 min 7 sec) 
Heartbeat CPU 0 instructions: 1010000000 cycles: 415889283 heartbeat IPC: 2.34681 cumulative IPC: 2.34975 (Simulation time: 0 hr 20 min 19 sec) 
Heartbeat CPU 0 instructions: 1020000001 cycles: 420155463 heartbeat IPC: 2.34402 cumulative IPC: 2.34969 (Simulation time: 0 hr 20 min 30 sec) 
Heartbeat CPU 0 instructions: 1030000003 cycles: 424422778 heartbeat IPC: 2.34339 cumulative IPC: 2.34962 (Simulation time: 0 hr 20 min 42 sec) 
Heartbeat CPU 0 instructions: 1040000001 cycles: 428686981 heartbeat IPC: 2.3451 cumulative IPC: 2.34957 (Simulation time: 0 hr 20 min 54 sec) 
Heartbeat CPU 0 instructions: 1050000000 cycles: 432947588 heartbeat IPC: 2.34708 cumulative IPC: 2.34955 (Simulation time: 0 hr 21 min 5 sec) 
Heartbeat CPU 0 instructions: 1060000003 cycles: 437210684 heartbeat IPC: 2.34571 cumulative IPC: 2.34951 (Simulation time: 0 hr 21 min 17 sec) 
Heartbeat CPU 0 instructions: 1070000000 cycles: 441476442 heartbeat IPC: 2.34425 cumulative IPC: 2.34945 (Simulation time: 0 hr 21 min 29 sec) 
Heartbeat CPU 0 instructions: 1080000001 cycles: 445741392 heartbeat IPC: 2.34469 cumulative IPC: 2.3494 (Simulation time: 0 hr 21 min 41 sec) 
Heartbeat CPU 0 instructions: 1090000003 cycles: 450004516 heartbeat IPC: 2.3457 cumulative IPC: 2.34937 (Simulation time: 0 hr 21 min 53 sec) 
Heartbeat CPU 0 instructions: 1100000000 cycles: 454270454 heartbeat IPC: 2.34415 cumulative IPC: 2.34931 (Simulation time: 0 hr 22 min 4 sec) 
Finished CPU 0 instructions: 1000000001 cycles: 425656088 cumulative IPC: 2.34931 (Simulation time: 0 hr 22 min 4 sec) 

ChampSim completed all CPUs

Region of Interest Statistics

CPU 0 cumulative IPC: 2.34931 instructions: 1000000001 cycles: 425656088
L1D TOTAL     ACCESS:   69169456  HIT:   60269741  MISS:    8899715
L1D LOAD      ACCESS:   69126009  HIT:   60232223  MISS:    8893786
L1D RFO       ACCESS:      43447  HIT:      37518  MISS:       5929
L1D PREFETCH  ACCESS:          0  HIT:          0  MISS:          0
L1D WRITEBACK ACCESS:          0  HIT:          0  MISS:          0
L1D PREFETCH  REQUESTED:          0  ISSUED:          0  USEFUL:          0  USELESS:          0
L1D AVERAGE MISS LATENCY: 16.4808 cycles
L1I TOTAL     ACCESS:  155618149  HIT:  155618149  MISS:          0
L1I LOAD      ACCESS:  155618149  HIT:  155618149  MISS:          0
L1I RFO       ACCESS:          0  HIT:          0  MISS:          0
L1I PREFETCH  ACCESS:          0  HIT:          0  MISS:          0
L1I WRITEBACK ACCESS:          0  HIT:          0  MISS:          0
L1I PREFETCH  REQUESTED:          0  ISSUED:          0  USEFUL:          0  USELESS:          0
L1I AVERAGE MISS LATENCY: -nan cycles
L2C TOTAL     ACCESS:    8914013  HIT:    8107947  MISS:     806066
L2C LOAD      ACCESS:    8893786  HIT:    8088416  MISS:     805370
L2C RFO       ACCESS:       5929  HIT:       5233  MISS:        696
L2C PREFETCH  ACCESS:          0  HIT:          0  MISS:          0
L2C WRITEBACK ACCESS:      14298  HIT:      14298  MISS:          0
L2C PREFETCH  REQUESTED:          0  ISSUED:          0  USEFUL:          0  USELESS:          0
L2C AVERAGE MISS LATENCY: 48.9466 cycles
LLC TOTAL     ACCESS:     806819  HIT:     761904  MISS:      44915
LLC LOAD      ACCESS:     805370  HIT:     760804  MISS:      44566
LLC RFO       ACCESS:        696  HIT:        347  MISS:        349
LLC PREFETCH  ACCESS:          0  HIT:          0  MISS:          0
LLC WRITEBACK ACCESS:        753  HIT:        753  MISS:          0
LLC PREFETCH  REQUESTED:          0  ISSUED:          0  USEFUL:          0  USELESS:          0
LLC AVERAGE MISS LATENCY: 160.535 cycles
Major fault: 0 Minor fault: 838
==============================
Perceptron RRIP Stats:
   Num Updates:          36955
   Num Primary Trains:   91
   Num Secondary Trains: 79
==============================
primary_perceptron #0: 3 3 -1 5 3 -1 -3 -3 -1 3 5 -1 -3 -3 -1 -5 
secondary_perceptron #0: 5 3 1 1 3 -3 -5 -5 1 3 7 -3 -9 -7 3 -3 3 9 -5 1 -13 


DRAM Statistics
 CHANNEL 0
 RQ ROW_BUFFER_HIT:      10098  ROW_BUFFER_MISS:      34817
 DBUS_CONGESTED:          3
 WQ ROW_BUFFER_HIT:          0  ROW_BUFFER_MISS:        161  FULL:          0

 AVG_CONGESTED_CYCLE: 5

CPU 0 Branch Prediction Accuracy: 99.6978% MPKI: 0.312803 Average ROB Occupancy at Mispredict: 65.5757

Branch types
NOT_BRANCH: 896497941 89.6498%
BRANCH_DIRECT_JUMP: 5582 0.0005582%
BRANCH_INDIRECT: 0 0%
BRANCH_CONDITIONAL: 103496179 10.3496%
BRANCH_DIRECT_CALL: 0 0%
BRANCH_INDIRECT_CALL: 0 0%
BRANCH_RETURN: 0 0%
BRANCH_OTHER: 0 0%

