
*** ChampSim Multicore Out-of-Order Simulator ***

Warmup Instructions: 100000000
Simulation Instructions: 1000000000
Number of CPUs: 1
LLC sets: 2048
LLC ways: 16
Off-chip DRAM Size: 4096 MB Channels: 1 Width: 64-bit Data Rate: 3200 MT/s

CPU 0 runs /scratch/user/kevin.weston/dpc3-traces/638.champsimtrace.xz
CPU 0 Bimodal branch predictor
Initialize DRRIP state
Assign rand_sets[0]: 454  LLC: 2048
rand_sets[0]: 454
Assign rand_sets[1]: 1662  LLC: 2048
rand_sets[1]: 1662
Assign rand_sets[2]: 1921  LLC: 2048
rand_sets[2]: 1921
Assign rand_sets[3]: 1131  LLC: 2048
rand_sets[3]: 1131
Assign rand_sets[4]: 331  LLC: 2048
rand_sets[4]: 331
Assign rand_sets[5]: 1531  LLC: 2048
rand_sets[5]: 1531
Assign rand_sets[6]: 482  LLC: 2048
rand_sets[6]: 482
Assign rand_sets[7]: 1275  LLC: 2048
rand_sets[7]: 1275
Assign rand_sets[8]: 1876  LLC: 2048
rand_sets[8]: 1876
Assign rand_sets[9]: 2038  LLC: 2048
rand_sets[9]: 2038
Assign rand_sets[10]: 701  LLC: 2048
rand_sets[10]: 701
Assign rand_sets[11]: 479  LLC: 2048
rand_sets[11]: 479
Assign rand_sets[12]: 892  LLC: 2048
rand_sets[12]: 892
Assign rand_sets[13]: 1820  LLC: 2048
rand_sets[13]: 1820
Assign rand_sets[14]: 1505  LLC: 2048
rand_sets[14]: 1505
Assign rand_sets[15]: 1159  LLC: 2048
rand_sets[15]: 1159
Assign rand_sets[16]: 513  LLC: 2048
rand_sets[16]: 513
Assign rand_sets[17]: 703  LLC: 2048
rand_sets[17]: 703
Assign rand_sets[18]: 561  LLC: 2048
rand_sets[18]: 561
Assign rand_sets[19]: 990  LLC: 2048
rand_sets[19]: 990
Assign rand_sets[20]: 342  LLC: 2048
rand_sets[20]: 342
Assign rand_sets[21]: 882  LLC: 2048
rand_sets[21]: 882
Assign rand_sets[22]: 15  LLC: 2048
rand_sets[22]: 15
Assign rand_sets[23]: 71  LLC: 2048
rand_sets[23]: 71
Assign rand_sets[24]: 1127  LLC: 2048
rand_sets[24]: 1127
Assign rand_sets[25]: 1382  LLC: 2048
rand_sets[25]: 1382
Assign rand_sets[26]: 647  LLC: 2048
rand_sets[26]: 647
Assign rand_sets[27]: 857  LLC: 2048
rand_sets[27]: 857
Assign rand_sets[28]: 1450  LLC: 2048
rand_sets[28]: 1450
Assign rand_sets[29]: 1160  LLC: 2048
rand_sets[29]: 1160
Assign rand_sets[30]: 1852  LLC: 2048
rand_sets[30]: 1852
Assign rand_sets[31]: 1881  LLC: 2048
rand_sets[31]: 1881
Assign rand_sets[32]: 1770  LLC: 2048
rand_sets[32]: 1770
Assign rand_sets[33]: 1622  LLC: 2048
rand_sets[33]: 1622
Assign rand_sets[34]: 275  LLC: 2048
rand_sets[34]: 275
Assign rand_sets[35]: 635  LLC: 2048
rand_sets[35]: 635
Assign rand_sets[36]: 466  LLC: 2048
rand_sets[36]: 466
Assign rand_sets[37]: 1413  LLC: 2048
rand_sets[37]: 1413
Assign rand_sets[38]: 417  LLC: 2048
rand_sets[38]: 417
Assign rand_sets[39]: 472  LLC: 2048
rand_sets[39]: 472
Assign rand_sets[40]: 1340  LLC: 2048
rand_sets[40]: 1340
Assign rand_sets[41]: 852  LLC: 2048
rand_sets[41]: 852
Assign rand_sets[42]: 1365  LLC: 2048
rand_sets[42]: 1365
Assign rand_sets[43]: 47  LLC: 2048
rand_sets[43]: 47
Assign rand_sets[44]: 823  LLC: 2048
rand_sets[44]: 823
Assign rand_sets[45]: 686  LLC: 2048
rand_sets[45]: 686
Assign rand_sets[46]: 1637  LLC: 2048
rand_sets[46]: 1637
Assign rand_sets[47]: 1115  LLC: 2048
rand_sets[47]: 1115
Assign rand_sets[48]: 986  LLC: 2048
rand_sets[48]: 986
Assign rand_sets[49]: 258  LLC: 2048
rand_sets[49]: 258
Assign rand_sets[50]: 633  LLC: 2048
rand_sets[50]: 633
Assign rand_sets[51]: 920  LLC: 2048
rand_sets[51]: 920
Assign rand_sets[52]: 204  LLC: 2048
rand_sets[52]: 204
Assign rand_sets[53]: 227  LLC: 2048
rand_sets[53]: 227
Assign rand_sets[54]: 1818  LLC: 2048
rand_sets[54]: 1818
Assign rand_sets[55]: 886  LLC: 2048
rand_sets[55]: 886
Assign rand_sets[56]: 1422  LLC: 2048
rand_sets[56]: 1422
Assign rand_sets[57]: 607  LLC: 2048
rand_sets[57]: 607
Assign rand_sets[58]: 217  LLC: 2048
rand_sets[58]: 217
Assign rand_sets[59]: 1945  LLC: 2048
rand_sets[59]: 1945
Assign rand_sets[60]: 143  LLC: 2048
rand_sets[60]: 143
Assign rand_sets[61]: 1311  LLC: 2048
rand_sets[61]: 1311
Assign rand_sets[62]: 319  LLC: 2048
rand_sets[62]: 319
Assign rand_sets[63]: 1846  LLC: 2048
rand_sets[63]: 1846
Heartbeat CPU 0 instructions: 10000001 cycles: 2862256 heartbeat IPC: 3.49375 cumulative IPC: 3.49375 (Simulation time: 0 hr 0 min 15 sec) 
Heartbeat CPU 0 instructions: 20000002 cycles: 5724237 heartbeat IPC: 3.49408 cumulative IPC: 3.49392 (Simulation time: 0 hr 0 min 30 sec) 
Heartbeat CPU 0 instructions: 30000000 cycles: 8586212 heartbeat IPC: 3.49409 cumulative IPC: 3.49397 (Simulation time: 0 hr 0 min 45 sec) 
Heartbeat CPU 0 instructions: 40000001 cycles: 11448245 heartbeat IPC: 3.49402 cumulative IPC: 3.49399 (Simulation time: 0 hr 1 min 0 sec) 
Heartbeat CPU 0 instructions: 50000000 cycles: 14310321 heartbeat IPC: 3.49397 cumulative IPC: 3.49398 (Simulation time: 0 hr 1 min 15 sec) 
Heartbeat CPU 0 instructions: 60000000 cycles: 17172323 heartbeat IPC: 3.49406 cumulative IPC: 3.49399 (Simulation time: 0 hr 1 min 30 sec) 
Heartbeat CPU 0 instructions: 70000003 cycles: 20034354 heartbeat IPC: 3.49402 cumulative IPC: 3.494 (Simulation time: 0 hr 1 min 45 sec) 
Heartbeat CPU 0 instructions: 80000001 cycles: 22896512 heartbeat IPC: 3.49387 cumulative IPC: 3.49398 (Simulation time: 0 hr 2 min 0 sec) 
Heartbeat CPU 0 instructions: 90000001 cycles: 25758651 heartbeat IPC: 3.49389 cumulative IPC: 3.49397 (Simulation time: 0 hr 2 min 15 sec) 
Heartbeat CPU 0 instructions: 100000002 cycles: 28620827 heartbeat IPC: 3.49385 cumulative IPC: 3.49396 (Simulation time: 0 hr 2 min 30 sec) 

Warmup complete CPU 0 instructions: 100000002 cycles: 28620827 (Simulation time: 0 hr 2 min 30 sec) 

Heartbeat CPU 0 instructions: 110000000 cycles: 33193158 heartbeat IPC: 2.18707 cumulative IPC: 2.18707 (Simulation time: 0 hr 2 min 44 sec) 
Heartbeat CPU 0 instructions: 120000000 cycles: 37789489 heartbeat IPC: 2.17565 cumulative IPC: 2.18134 (Simulation time: 0 hr 2 min 58 sec) 
Heartbeat CPU 0 instructions: 130000003 cycles: 42379616 heartbeat IPC: 2.17859 cumulative IPC: 2.18042 (Simulation time: 0 hr 3 min 12 sec) 
Heartbeat CPU 0 instructions: 140000002 cycles: 46977662 heartbeat IPC: 2.17484 cumulative IPC: 2.17902 (Simulation time: 0 hr 3 min 26 sec) 
Heartbeat CPU 0 instructions: 150000000 cycles: 51589498 heartbeat IPC: 2.16833 cumulative IPC: 2.17688 (Simulation time: 0 hr 3 min 41 sec) 
Heartbeat CPU 0 instructions: 160000003 cycles: 56221929 heartbeat IPC: 2.15869 cumulative IPC: 2.17383 (Simulation time: 0 hr 3 min 55 sec) 
Heartbeat CPU 0 instructions: 170000000 cycles: 60864859 heartbeat IPC: 2.15381 cumulative IPC: 2.17094 (Simulation time: 0 hr 4 min 9 sec) 
Heartbeat CPU 0 instructions: 180000002 cycles: 65508454 heartbeat IPC: 2.1535 cumulative IPC: 2.16875 (Simulation time: 0 hr 4 min 24 sec) 
Heartbeat CPU 0 instructions: 190000002 cycles: 70147001 heartbeat IPC: 2.15585 cumulative IPC: 2.16731 (Simulation time: 0 hr 4 min 38 sec) 
Heartbeat CPU 0 instructions: 200000000 cycles: 74780330 heartbeat IPC: 2.15827 cumulative IPC: 2.1664 (Simulation time: 0 hr 4 min 52 sec) 
Heartbeat CPU 0 instructions: 210000003 cycles: 79409274 heartbeat IPC: 2.16032 cumulative IPC: 2.16585 (Simulation time: 0 hr 5 min 7 sec) 
Heartbeat CPU 0 instructions: 220000000 cycles: 84044770 heartbeat IPC: 2.15727 cumulative IPC: 2.16513 (Simulation time: 0 hr 5 min 21 sec) 
Heartbeat CPU 0 instructions: 230000002 cycles: 88685812 heartbeat IPC: 2.15469 cumulative IPC: 2.16432 (Simulation time: 0 hr 5 min 36 sec) 
Heartbeat CPU 0 instructions: 240000001 cycles: 93319422 heartbeat IPC: 2.15814 cumulative IPC: 2.16388 (Simulation time: 0 hr 5 min 50 sec) 
Heartbeat CPU 0 instructions: 250000000 cycles: 97950033 heartbeat IPC: 2.15954 cumulative IPC: 2.16359 (Simulation time: 0 hr 6 min 4 sec) 
Heartbeat CPU 0 instructions: 260000003 cycles: 102584534 heartbeat IPC: 2.15773 cumulative IPC: 2.16322 (Simulation time: 0 hr 6 min 19 sec) 
Heartbeat CPU 0 instructions: 270000002 cycles: 107219079 heartbeat IPC: 2.15771 cumulative IPC: 2.1629 (Simulation time: 0 hr 6 min 33 sec) 
Heartbeat CPU 0 instructions: 280000003 cycles: 111851733 heartbeat IPC: 2.15859 cumulative IPC: 2.16266 (Simulation time: 0 hr 6 min 47 sec) 
Heartbeat CPU 0 instructions: 290000002 cycles: 116483336 heartbeat IPC: 2.15908 cumulative IPC: 2.16247 (Simulation time: 0 hr 7 min 1 sec) 
Heartbeat CPU 0 instructions: 300000002 cycles: 121116852 heartbeat IPC: 2.15819 cumulative IPC: 2.16226 (Simulation time: 0 hr 7 min 16 sec) 
Heartbeat CPU 0 instructions: 310000003 cycles: 125753884 heartbeat IPC: 2.15655 cumulative IPC: 2.16198 (Simulation time: 0 hr 7 min 30 sec) 
Heartbeat CPU 0 instructions: 320000001 cycles: 130388460 heartbeat IPC: 2.15769 cumulative IPC: 2.16179 (Simulation time: 0 hr 7 min 44 sec) 
Heartbeat CPU 0 instructions: 330000000 cycles: 135022712 heartbeat IPC: 2.15785 cumulative IPC: 2.16162 (Simulation time: 0 hr 7 min 59 sec) 
Heartbeat CPU 0 instructions: 340000002 cycles: 139652987 heartbeat IPC: 2.1597 cumulative IPC: 2.16154 (Simulation time: 0 hr 8 min 13 sec) 
Heartbeat CPU 0 instructions: 350000000 cycles: 144284694 heartbeat IPC: 2.15903 cumulative IPC: 2.16144 (Simulation time: 0 hr 8 min 27 sec) 
Heartbeat CPU 0 instructions: 360000001 cycles: 148917935 heartbeat IPC: 2.15832 cumulative IPC: 2.16132 (Simulation time: 0 hr 8 min 42 sec) 
Heartbeat CPU 0 instructions: 370000003 cycles: 153546369 heartbeat IPC: 2.16056 cumulative IPC: 2.16129 (Simulation time: 0 hr 8 min 56 sec) 
Heartbeat CPU 0 instructions: 380000001 cycles: 158177428 heartbeat IPC: 2.15933 cumulative IPC: 2.16122 (Simulation time: 0 hr 9 min 10 sec) 
Heartbeat CPU 0 instructions: 390000001 cycles: 162810294 heartbeat IPC: 2.15849 cumulative IPC: 2.16112 (Simulation time: 0 hr 9 min 24 sec) 
Heartbeat CPU 0 instructions: 400000002 cycles: 167444088 heartbeat IPC: 2.15806 cumulative IPC: 2.16102 (Simulation time: 0 hr 9 min 39 sec) 
Heartbeat CPU 0 instructions: 410000002 cycles: 172076488 heartbeat IPC: 2.15871 cumulative IPC: 2.16095 (Simulation time: 0 hr 9 min 53 sec) 
Heartbeat CPU 0 instructions: 420000000 cycles: 176708303 heartbeat IPC: 2.15898 cumulative IPC: 2.16088 (Simulation time: 0 hr 10 min 7 sec) 
Heartbeat CPU 0 instructions: 430000003 cycles: 181341128 heartbeat IPC: 2.15851 cumulative IPC: 2.16081 (Simulation time: 0 hr 10 min 22 sec) 
Heartbeat CPU 0 instructions: 440000000 cycles: 185975843 heartbeat IPC: 2.15763 cumulative IPC: 2.16072 (Simulation time: 0 hr 10 min 36 sec) 
Heartbeat CPU 0 instructions: 450000000 cycles: 190610059 heartbeat IPC: 2.15786 cumulative IPC: 2.16064 (Simulation time: 0 hr 10 min 50 sec) 
Heartbeat CPU 0 instructions: 460000002 cycles: 195246704 heartbeat IPC: 2.15673 cumulative IPC: 2.16053 (Simulation time: 0 hr 11 min 5 sec) 
Heartbeat CPU 0 instructions: 470000003 cycles: 199882966 heartbeat IPC: 2.15691 cumulative IPC: 2.16043 (Simulation time: 0 hr 11 min 19 sec) 
Heartbeat CPU 0 instructions: 480000000 cycles: 204520693 heartbeat IPC: 2.15623 cumulative IPC: 2.16032 (Simulation time: 0 hr 11 min 33 sec) 
Heartbeat CPU 0 instructions: 490000001 cycles: 209155781 heartbeat IPC: 2.15746 cumulative IPC: 2.16025 (Simulation time: 0 hr 11 min 48 sec) 
Heartbeat CPU 0 instructions: 500000000 cycles: 213788632 heartbeat IPC: 2.1585 cumulative IPC: 2.1602 (Simulation time: 0 hr 12 min 2 sec) 
Heartbeat CPU 0 instructions: 510000000 cycles: 218421339 heartbeat IPC: 2.15857 cumulative IPC: 2.16016 (Simulation time: 0 hr 12 min 16 sec) 
Heartbeat CPU 0 instructions: 520000001 cycles: 223057527 heartbeat IPC: 2.15694 cumulative IPC: 2.16009 (Simulation time: 0 hr 12 min 31 sec) 
Heartbeat CPU 0 instructions: 530000002 cycles: 227691483 heartbeat IPC: 2.15798 cumulative IPC: 2.16004 (Simulation time: 0 hr 12 min 45 sec) 
Heartbeat CPU 0 instructions: 540000001 cycles: 232323945 heartbeat IPC: 2.15868 cumulative IPC: 2.16001 (Simulation time: 0 hr 12 min 59 sec) 
Heartbeat CPU 0 instructions: 550000000 cycles: 236954064 heartbeat IPC: 2.15977 cumulative IPC: 2.16 (Simulation time: 0 hr 13 min 13 sec) 
Heartbeat CPU 0 instructions: 560000002 cycles: 241589209 heartbeat IPC: 2.15743 cumulative IPC: 2.15995 (Simulation time: 0 hr 13 min 28 sec) 
Heartbeat CPU 0 instructions: 570000001 cycles: 246225059 heartbeat IPC: 2.1571 cumulative IPC: 2.15988 (Simulation time: 0 hr 13 min 42 sec) 
Heartbeat CPU 0 instructions: 580000003 cycles: 250861691 heartbeat IPC: 2.15674 cumulative IPC: 2.15982 (Simulation time: 0 hr 13 min 56 sec) 
Heartbeat CPU 0 instructions: 590000002 cycles: 255493692 heartbeat IPC: 2.15889 cumulative IPC: 2.1598 (Simulation time: 0 hr 14 min 11 sec) 
Heartbeat CPU 0 instructions: 600000003 cycles: 260129749 heartbeat IPC: 2.15701 cumulative IPC: 2.15974 (Simulation time: 0 hr 14 min 25 sec) 
Heartbeat CPU 0 instructions: 610000002 cycles: 264765321 heartbeat IPC: 2.15723 cumulative IPC: 2.15969 (Simulation time: 0 hr 14 min 39 sec) 
Heartbeat CPU 0 instructions: 620000002 cycles: 269399764 heartbeat IPC: 2.15776 cumulative IPC: 2.15966 (Simulation time: 0 hr 14 min 54 sec) 
Heartbeat CPU 0 instructions: 630000001 cycles: 274033037 heartbeat IPC: 2.1583 cumulative IPC: 2.15963 (Simulation time: 0 hr 15 min 8 sec) 
Heartbeat CPU 0 instructions: 640000002 cycles: 278663021 heartbeat IPC: 2.15983 cumulative IPC: 2.15964 (Simulation time: 0 hr 15 min 22 sec) 
Heartbeat CPU 0 instructions: 650000001 cycles: 283289748 heartbeat IPC: 2.16135 cumulative IPC: 2.15967 (Simulation time: 0 hr 15 min 37 sec) 
Heartbeat CPU 0 instructions: 660000000 cycles: 287920204 heartbeat IPC: 2.15961 cumulative IPC: 2.15967 (Simulation time: 0 hr 15 min 51 sec) 
Heartbeat CPU 0 instructions: 670000001 cycles: 292547357 heartbeat IPC: 2.16116 cumulative IPC: 2.15969 (Simulation time: 0 hr 16 min 5 sec) 
Heartbeat CPU 0 instructions: 680000002 cycles: 297184869 heartbeat IPC: 2.15633 cumulative IPC: 2.15963 (Simulation time: 0 hr 16 min 20 sec) 
Heartbeat CPU 0 instructions: 690000002 cycles: 301821812 heartbeat IPC: 2.15659 cumulative IPC: 2.15958 (Simulation time: 0 hr 16 min 34 sec) 
Heartbeat CPU 0 instructions: 700000001 cycles: 306460035 heartbeat IPC: 2.156 cumulative IPC: 2.15952 (Simulation time: 0 hr 16 min 48 sec) 
Heartbeat CPU 0 instructions: 710000002 cycles: 311100269 heartbeat IPC: 2.15506 cumulative IPC: 2.15945 (Simulation time: 0 hr 17 min 2 sec) 
Heartbeat CPU 0 instructions: 720000003 cycles: 315735930 heartbeat IPC: 2.15719 cumulative IPC: 2.15941 (Simulation time: 0 hr 17 min 17 sec) 
Heartbeat CPU 0 instructions: 730000001 cycles: 320375918 heartbeat IPC: 2.15518 cumulative IPC: 2.15935 (Simulation time: 0 hr 17 min 31 sec) 
Heartbeat CPU 0 instructions: 740000001 cycles: 325014672 heartbeat IPC: 2.15575 cumulative IPC: 2.15929 (Simulation time: 0 hr 17 min 45 sec) 
Heartbeat CPU 0 instructions: 750000001 cycles: 329651934 heartbeat IPC: 2.15644 cumulative IPC: 2.15925 (Simulation time: 0 hr 18 min 0 sec) 
Heartbeat CPU 0 instructions: 760000001 cycles: 334294037 heartbeat IPC: 2.1542 cumulative IPC: 2.15917 (Simulation time: 0 hr 18 min 14 sec) 
Heartbeat CPU 0 instructions: 770000000 cycles: 338935429 heartbeat IPC: 2.15453 cumulative IPC: 2.1591 (Simulation time: 0 hr 18 min 28 sec) 
Heartbeat CPU 0 instructions: 780000001 cycles: 343575530 heartbeat IPC: 2.15513 cumulative IPC: 2.15904 (Simulation time: 0 hr 18 min 43 sec) 
Heartbeat CPU 0 instructions: 790000003 cycles: 348215889 heartbeat IPC: 2.15501 cumulative IPC: 2.15898 (Simulation time: 0 hr 18 min 57 sec) 
Heartbeat CPU 0 instructions: 800000002 cycles: 352856316 heartbeat IPC: 2.15497 cumulative IPC: 2.15892 (Simulation time: 0 hr 19 min 11 sec) 
Heartbeat CPU 0 instructions: 810000000 cycles: 357493313 heartbeat IPC: 2.15657 cumulative IPC: 2.15889 (Simulation time: 0 hr 19 min 26 sec) 
Heartbeat CPU 0 instructions: 820000002 cycles: 362129333 heartbeat IPC: 2.15702 cumulative IPC: 2.15887 (Simulation time: 0 hr 19 min 40 sec) 
Heartbeat CPU 0 instructions: 830000001 cycles: 366766949 heartbeat IPC: 2.15628 cumulative IPC: 2.15883 (Simulation time: 0 hr 19 min 54 sec) 
Heartbeat CPU 0 instructions: 840000001 cycles: 371411193 heartbeat IPC: 2.1532 cumulative IPC: 2.15875 (Simulation time: 0 hr 20 min 9 sec) 
Heartbeat CPU 0 instructions: 850000002 cycles: 376049400 heartbeat IPC: 2.15601 cumulative IPC: 2.15872 (Simulation time: 0 hr 20 min 23 sec) 
Heartbeat CPU 0 instructions: 860000003 cycles: 380690701 heartbeat IPC: 2.15457 cumulative IPC: 2.15866 (Simulation time: 0 hr 20 min 37 sec) 
Heartbeat CPU 0 instructions: 870000000 cycles: 385327988 heartbeat IPC: 2.15643 cumulative IPC: 2.15863 (Simulation time: 0 hr 20 min 52 sec) 
Heartbeat CPU 0 instructions: 880000000 cycles: 389970646 heartbeat IPC: 2.15394 cumulative IPC: 2.15857 (Simulation time: 0 hr 21 min 6 sec) 
Heartbeat CPU 0 instructions: 890000001 cycles: 394608673 heartbeat IPC: 2.15609 cumulative IPC: 2.15854 (Simulation time: 0 hr 21 min 20 sec) 
Heartbeat CPU 0 instructions: 900000001 cycles: 399246079 heartbeat IPC: 2.15638 cumulative IPC: 2.15851 (Simulation time: 0 hr 21 min 35 sec) 
Heartbeat CPU 0 instructions: 910000002 cycles: 403879710 heartbeat IPC: 2.15813 cumulative IPC: 2.15851 (Simulation time: 0 hr 21 min 49 sec) 
Heartbeat CPU 0 instructions: 920000000 cycles: 408511153 heartbeat IPC: 2.15915 cumulative IPC: 2.15852 (Simulation time: 0 hr 22 min 3 sec) 
Heartbeat CPU 0 instructions: 930000000 cycles: 413145252 heartbeat IPC: 2.15792 cumulative IPC: 2.15851 (Simulation time: 0 hr 22 min 18 sec) 
Heartbeat CPU 0 instructions: 940000000 cycles: 417779002 heartbeat IPC: 2.15808 cumulative IPC: 2.15851 (Simulation time: 0 hr 22 min 32 sec) 
Heartbeat CPU 0 instructions: 950000002 cycles: 422409998 heartbeat IPC: 2.15936 cumulative IPC: 2.15852 (Simulation time: 0 hr 22 min 46 sec) 
Heartbeat CPU 0 instructions: 960000001 cycles: 427042640 heartbeat IPC: 2.1586 cumulative IPC: 2.15852 (Simulation time: 0 hr 23 min 0 sec) 
Heartbeat CPU 0 instructions: 970000002 cycles: 431672941 heartbeat IPC: 2.15969 cumulative IPC: 2.15853 (Simulation time: 0 hr 23 min 14 sec) 
Heartbeat CPU 0 instructions: 980000001 cycles: 436305862 heartbeat IPC: 2.15847 cumulative IPC: 2.15853 (Simulation time: 0 hr 23 min 29 sec) 
Heartbeat CPU 0 instructions: 990000000 cycles: 440942983 heartbeat IPC: 2.15651 cumulative IPC: 2.15851 (Simulation time: 0 hr 23 min 43 sec) 
Heartbeat CPU 0 instructions: 1000000003 cycles: 445576618 heartbeat IPC: 2.15813 cumulative IPC: 2.1585 (Simulation time: 0 hr 23 min 57 sec) 
Heartbeat CPU 0 instructions: 1010000000 cycles: 450210004 heartbeat IPC: 2.15825 cumulative IPC: 2.1585 (Simulation time: 0 hr 24 min 11 sec) 
Heartbeat CPU 0 instructions: 1020000001 cycles: 454843378 heartbeat IPC: 2.15825 cumulative IPC: 2.1585 (Simulation time: 0 hr 24 min 25 sec) 
Heartbeat CPU 0 instructions: 1030000001 cycles: 459477955 heartbeat IPC: 2.15769 cumulative IPC: 2.15849 (Simulation time: 0 hr 24 min 40 sec) 
Heartbeat CPU 0 instructions: 1040000002 cycles: 464113252 heartbeat IPC: 2.15736 cumulative IPC: 2.15848 (Simulation time: 0 hr 24 min 54 sec) 
Heartbeat CPU 0 instructions: 1050000003 cycles: 468745863 heartbeat IPC: 2.15861 cumulative IPC: 2.15848 (Simulation time: 0 hr 25 min 8 sec) 
Heartbeat CPU 0 instructions: 1060000001 cycles: 473378725 heartbeat IPC: 2.15849 cumulative IPC: 2.15848 (Simulation time: 0 hr 25 min 22 sec) 
Heartbeat CPU 0 instructions: 1070000002 cycles: 478011692 heartbeat IPC: 2.15844 cumulative IPC: 2.15848 (Simulation time: 0 hr 25 min 36 sec) 
Heartbeat CPU 0 instructions: 1080000001 cycles: 482646174 heartbeat IPC: 2.15774 cumulative IPC: 2.15847 (Simulation time: 0 hr 25 min 51 sec) 
Heartbeat CPU 0 instructions: 1090000003 cycles: 487280846 heartbeat IPC: 2.15765 cumulative IPC: 2.15846 (Simulation time: 0 hr 26 min 5 sec) 
Heartbeat CPU 0 instructions: 1100000000 cycles: 491913168 heartbeat IPC: 2.15874 cumulative IPC: 2.15846 (Simulation time: 0 hr 26 min 19 sec) 
Finished CPU 0 instructions: 1000000001 cycles: 463292350 cumulative IPC: 2.15846 (Simulation time: 0 hr 26 min 19 sec) 

ChampSim completed all CPUs

Region of Interest Statistics

CPU 0 cumulative IPC: 2.15846 instructions: 1000000001 cycles: 463292350
L1D TOTAL     ACCESS:   52903658  HIT:   44003943  MISS:    8899715
L1D LOAD      ACCESS:   52859844  HIT:   43966058  MISS:    8893786
L1D RFO       ACCESS:      43814  HIT:      37885  MISS:       5929
L1D PREFETCH  ACCESS:          0  HIT:          0  MISS:          0
L1D WRITEBACK ACCESS:          0  HIT:          0  MISS:          0
L1D PREFETCH  REQUESTED:          0  ISSUED:          0  USEFUL:          0  USELESS:          0
L1D AVERAGE MISS LATENCY: 30.0264 cycles
L1I TOTAL     ACCESS:  157234965  HIT:  157234965  MISS:          0
L1I LOAD      ACCESS:  157234965  HIT:  157234965  MISS:          0
L1I RFO       ACCESS:          0  HIT:          0  MISS:          0
L1I PREFETCH  ACCESS:          0  HIT:          0  MISS:          0
L1I WRITEBACK ACCESS:          0  HIT:          0  MISS:          0
L1I PREFETCH  REQUESTED:          0  ISSUED:          0  USEFUL:          0  USELESS:          0
L1I AVERAGE MISS LATENCY: -nan cycles
L2C TOTAL     ACCESS:    8914013  HIT:    5063918  MISS:    3850095
L2C LOAD      ACCESS:    8893786  HIT:    5044040  MISS:    3849746
L2C RFO       ACCESS:       5929  HIT:       5580  MISS:        349
L2C PREFETCH  ACCESS:          0  HIT:          0  MISS:          0
L2C WRITEBACK ACCESS:      14298  HIT:      14298  MISS:          0
L2C PREFETCH  REQUESTED:          0  ISSUED:          0  USEFUL:          0  USELESS:          0
L2C AVERAGE MISS LATENCY: 41.6054 cycles
LLC TOTAL     ACCESS:    3853220  HIT:    3813258  MISS:      39962
LLC LOAD      ACCESS:    3849746  HIT:    3810135  MISS:      39611
LLC RFO       ACCESS:        349  HIT:          0  MISS:        349
LLC PREFETCH  ACCESS:          0  HIT:          0  MISS:          0
LLC WRITEBACK ACCESS:       3125  HIT:       3123  MISS:          2
LLC PREFETCH  REQUESTED:          0  ISSUED:          0  USEFUL:          0  USELESS:          0
LLC AVERAGE MISS LATENCY: 154.519 cycles
Major fault: 0 Minor fault: 838

DRAM Statistics
 CHANNEL 0
 RQ ROW_BUFFER_HIT:      11382  ROW_BUFFER_MISS:      28578
 DBUS_CONGESTED:          1
 WQ ROW_BUFFER_HIT:          0  ROW_BUFFER_MISS:        107  FULL:          0

 AVG_CONGESTED_CYCLE: 7

CPU 0 Branch Prediction Accuracy: 99.6978% MPKI: 0.312803 Average ROB Occupancy at Mispredict: 228.073

Branch types
NOT_BRANCH: 896497941 89.6498%
BRANCH_DIRECT_JUMP: 5582 0.0005582%
BRANCH_INDIRECT: 0 0%
BRANCH_CONDITIONAL: 103496179 10.3496%
BRANCH_DIRECT_CALL: 0 0%
BRANCH_INDIRECT_CALL: 0 0%
BRANCH_RETURN: 0 0%
BRANCH_OTHER: 0 0%

