
*** ChampSim Multicore Out-of-Order Simulator ***

Warmup Instructions: 100000000
Simulation Instructions: 1000000000
Number of CPUs: 1
LLC sets: 2048
LLC ways: 16
Off-chip DRAM Size: 4096 MB Channels: 1 Width: 64-bit Data Rate: 3200 MT/s

CPU 0 runs /scratch/user/kevin.weston/dpc3-traces/638.champsimtrace.xz
CPU 0 Bimodal branch predictor
Initialize SHIP state
Assign rand_sets[0]: 454  LLC: 2048
rand_sets[0]: 454
Assign rand_sets[1]: 1662  LLC: 2048
rand_sets[1]: 1662
Assign rand_sets[2]: 1921  LLC: 2048
rand_sets[2]: 1921
Assign rand_sets[3]: 1131  LLC: 2048
rand_sets[3]: 1131
Assign rand_sets[4]: 331  LLC: 2048
rand_sets[4]: 331
Assign rand_sets[5]: 1531  LLC: 2048
rand_sets[5]: 1531
Assign rand_sets[6]: 482  LLC: 2048
rand_sets[6]: 482
Assign rand_sets[7]: 1275  LLC: 2048
rand_sets[7]: 1275
Assign rand_sets[8]: 1876  LLC: 2048
rand_sets[8]: 1876
Assign rand_sets[9]: 2038  LLC: 2048
rand_sets[9]: 2038
Assign rand_sets[10]: 701  LLC: 2048
rand_sets[10]: 701
Assign rand_sets[11]: 479  LLC: 2048
rand_sets[11]: 479
Assign rand_sets[12]: 892  LLC: 2048
rand_sets[12]: 892
Assign rand_sets[13]: 1820  LLC: 2048
rand_sets[13]: 1820
Assign rand_sets[14]: 1505  LLC: 2048
rand_sets[14]: 1505
Assign rand_sets[15]: 1159  LLC: 2048
rand_sets[15]: 1159
Assign rand_sets[16]: 513  LLC: 2048
rand_sets[16]: 513
Assign rand_sets[17]: 703  LLC: 2048
rand_sets[17]: 703
Assign rand_sets[18]: 561  LLC: 2048
rand_sets[18]: 561
Assign rand_sets[19]: 990  LLC: 2048
rand_sets[19]: 990
Assign rand_sets[20]: 342  LLC: 2048
rand_sets[20]: 342
Assign rand_sets[21]: 882  LLC: 2048
rand_sets[21]: 882
Assign rand_sets[22]: 15  LLC: 2048
rand_sets[22]: 15
Assign rand_sets[23]: 71  LLC: 2048
rand_sets[23]: 71
Assign rand_sets[24]: 1127  LLC: 2048
rand_sets[24]: 1127
Assign rand_sets[25]: 1382  LLC: 2048
rand_sets[25]: 1382
Assign rand_sets[26]: 647  LLC: 2048
rand_sets[26]: 647
Assign rand_sets[27]: 857  LLC: 2048
rand_sets[27]: 857
Assign rand_sets[28]: 1450  LLC: 2048
rand_sets[28]: 1450
Assign rand_sets[29]: 1160  LLC: 2048
rand_sets[29]: 1160
Assign rand_sets[30]: 1852  LLC: 2048
rand_sets[30]: 1852
Assign rand_sets[31]: 1881  LLC: 2048
rand_sets[31]: 1881
Assign rand_sets[32]: 1770  LLC: 2048
rand_sets[32]: 1770
Assign rand_sets[33]: 1622  LLC: 2048
rand_sets[33]: 1622
Assign rand_sets[34]: 275  LLC: 2048
rand_sets[34]: 275
Assign rand_sets[35]: 635  LLC: 2048
rand_sets[35]: 635
Assign rand_sets[36]: 466  LLC: 2048
rand_sets[36]: 466
Assign rand_sets[37]: 1413  LLC: 2048
rand_sets[37]: 1413
Assign rand_sets[38]: 417  LLC: 2048
rand_sets[38]: 417
Assign rand_sets[39]: 472  LLC: 2048
rand_sets[39]: 472
Assign rand_sets[40]: 1340  LLC: 2048
rand_sets[40]: 1340
Assign rand_sets[41]: 852  LLC: 2048
rand_sets[41]: 852
Assign rand_sets[42]: 1365  LLC: 2048
rand_sets[42]: 1365
Assign rand_sets[43]: 47  LLC: 2048
rand_sets[43]: 47
Assign rand_sets[44]: 823  LLC: 2048
rand_sets[44]: 823
Assign rand_sets[45]: 686  LLC: 2048
rand_sets[45]: 686
Assign rand_sets[46]: 1637  LLC: 2048
rand_sets[46]: 1637
Assign rand_sets[47]: 1115  LLC: 2048
rand_sets[47]: 1115
Assign rand_sets[48]: 986  LLC: 2048
rand_sets[48]: 986
Assign rand_sets[49]: 258  LLC: 2048
rand_sets[49]: 258
Assign rand_sets[50]: 633  LLC: 2048
rand_sets[50]: 633
Assign rand_sets[51]: 920  LLC: 2048
rand_sets[51]: 920
Assign rand_sets[52]: 204  LLC: 2048
rand_sets[52]: 204
Assign rand_sets[53]: 227  LLC: 2048
rand_sets[53]: 227
Assign rand_sets[54]: 1818  LLC: 2048
rand_sets[54]: 1818
Assign rand_sets[55]: 886  LLC: 2048
rand_sets[55]: 886
Assign rand_sets[56]: 1422  LLC: 2048
rand_sets[56]: 1422
Assign rand_sets[57]: 607  LLC: 2048
rand_sets[57]: 607
Assign rand_sets[58]: 217  LLC: 2048
rand_sets[58]: 217
Assign rand_sets[59]: 1945  LLC: 2048
rand_sets[59]: 1945
Assign rand_sets[60]: 143  LLC: 2048
rand_sets[60]: 143
Assign rand_sets[61]: 1311  LLC: 2048
rand_sets[61]: 1311
Assign rand_sets[62]: 319  LLC: 2048
rand_sets[62]: 319
Assign rand_sets[63]: 1846  LLC: 2048
rand_sets[63]: 1846
Assign rand_sets[64]: 238  LLC: 2048
rand_sets[64]: 238
Assign rand_sets[65]: 67  LLC: 2048
rand_sets[65]: 67
Assign rand_sets[66]: 1912  LLC: 2048
rand_sets[66]: 1912
Assign rand_sets[67]: 1613  LLC: 2048
rand_sets[67]: 1613
Assign rand_sets[68]: 1293  LLC: 2048
rand_sets[68]: 1293
Assign rand_sets[69]: 1018  LLC: 2048
rand_sets[69]: 1018
Assign rand_sets[70]: 1982  LLC: 2048
rand_sets[70]: 1982
Assign rand_sets[71]: 1702  LLC: 2048
rand_sets[71]: 1702
Assign rand_sets[72]: 1498  LLC: 2048
rand_sets[72]: 1498
Assign rand_sets[73]: 228  LLC: 2048
rand_sets[73]: 228
Assign rand_sets[74]: 1414  LLC: 2048
rand_sets[74]: 1414
Assign rand_sets[75]: 1166  LLC: 2048
rand_sets[75]: 1166
Assign rand_sets[76]: 732  LLC: 2048
rand_sets[76]: 732
Assign rand_sets[77]: 297  LLC: 2048
rand_sets[77]: 297
Assign rand_sets[78]: 1133  LLC: 2048
rand_sets[78]: 1133
Assign rand_sets[79]: 846  LLC: 2048
rand_sets[79]: 846
Assign rand_sets[80]: 767  LLC: 2048
rand_sets[80]: 767
Assign rand_sets[81]: 1878  LLC: 2048
rand_sets[81]: 1878
Assign rand_sets[82]: 993  LLC: 2048
rand_sets[82]: 993
Assign rand_sets[83]: 1392  LLC: 2048
rand_sets[83]: 1392
Assign rand_sets[84]: 1568  LLC: 2048
rand_sets[84]: 1568
Assign rand_sets[85]: 1787  LLC: 2048
rand_sets[85]: 1787
Assign rand_sets[86]: 399  LLC: 2048
rand_sets[86]: 399
Assign rand_sets[87]: 1201  LLC: 2048
rand_sets[87]: 1201
Assign rand_sets[88]: 856  LLC: 2048
rand_sets[88]: 856
Assign rand_sets[89]: 773  LLC: 2048
rand_sets[89]: 773
Assign rand_sets[90]: 1680  LLC: 2048
rand_sets[90]: 1680
Assign rand_sets[91]: 1477  LLC: 2048
rand_sets[91]: 1477
Assign rand_sets[92]: 9  LLC: 2048
rand_sets[92]: 9
Assign rand_sets[93]: 1500  LLC: 2048
rand_sets[93]: 1500
Assign rand_sets[94]: 851  LLC: 2048
rand_sets[94]: 851
Assign rand_sets[95]: 973  LLC: 2048
rand_sets[95]: 973
Assign rand_sets[96]: 938  LLC: 2048
rand_sets[96]: 938
Assign rand_sets[97]: 1851  LLC: 2048
rand_sets[97]: 1851
Assign rand_sets[98]: 1608  LLC: 2048
rand_sets[98]: 1608
Assign rand_sets[99]: 1945  LLC: 2048
Assign rand_sets[99]: 1106  LLC: 2048
rand_sets[99]: 1106
Assign rand_sets[100]: 979  LLC: 2048
rand_sets[100]: 979
Assign rand_sets[101]: 338  LLC: 2048
rand_sets[101]: 338
Assign rand_sets[102]: 1693  LLC: 2048
rand_sets[102]: 1693
Assign rand_sets[103]: 6  LLC: 2048
rand_sets[103]: 6
Assign rand_sets[104]: 671  LLC: 2048
rand_sets[104]: 671
Assign rand_sets[105]: 490  LLC: 2048
rand_sets[105]: 490
Assign rand_sets[106]: 1461  LLC: 2048
rand_sets[106]: 1461
Assign rand_sets[107]: 1730  LLC: 2048
rand_sets[107]: 1730
Assign rand_sets[108]: 1030  LLC: 2048
rand_sets[108]: 1030
Assign rand_sets[109]: 19  LLC: 2048
rand_sets[109]: 19
Assign rand_sets[110]: 920  LLC: 2048
Assign rand_sets[110]: 329  LLC: 2048
rand_sets[110]: 329
Assign rand_sets[111]: 1714  LLC: 2048
rand_sets[111]: 1714
Assign rand_sets[112]: 1  LLC: 2048
rand_sets[112]: 1
Assign rand_sets[113]: 1822  LLC: 2048
rand_sets[113]: 1822
Assign rand_sets[114]: 172  LLC: 2048
rand_sets[114]: 172
Assign rand_sets[115]: 1586  LLC: 2048
rand_sets[115]: 1586
Assign rand_sets[116]: 648  LLC: 2048
rand_sets[116]: 648
Assign rand_sets[117]: 1329  LLC: 2048
rand_sets[117]: 1329
Assign rand_sets[118]: 668  LLC: 2048
rand_sets[118]: 668
Assign rand_sets[119]: 1874  LLC: 2048
rand_sets[119]: 1874
Assign rand_sets[120]: 70  LLC: 2048
rand_sets[120]: 70
Assign rand_sets[121]: 661  LLC: 2048
rand_sets[121]: 661
Assign rand_sets[122]: 1649  LLC: 2048
rand_sets[122]: 1649
Assign rand_sets[123]: 1590  LLC: 2048
rand_sets[123]: 1590
Assign rand_sets[124]: 911  LLC: 2048
rand_sets[124]: 911
Assign rand_sets[125]: 1367  LLC: 2048
rand_sets[125]: 1367
Assign rand_sets[126]: 1782  LLC: 2048
rand_sets[126]: 1782
Assign rand_sets[127]: 569  LLC: 2048
rand_sets[127]: 569
Heartbeat CPU 0 instructions: 10000001 cycles: 2862038 heartbeat IPC: 3.49401 cumulative IPC: 3.49401 (Simulation time: 0 hr 0 min 16 sec) 
Heartbeat CPU 0 instructions: 20000002 cycles: 5723750 heartbeat IPC: 3.49441 cumulative IPC: 3.49421 (Simulation time: 0 hr 0 min 31 sec) 
Heartbeat CPU 0 instructions: 30000000 cycles: 8585413 heartbeat IPC: 3.49447 cumulative IPC: 3.4943 (Simulation time: 0 hr 0 min 46 sec) 
Heartbeat CPU 0 instructions: 40000001 cycles: 11447142 heartbeat IPC: 3.49439 cumulative IPC: 3.49432 (Simulation time: 0 hr 1 min 1 sec) 
Heartbeat CPU 0 instructions: 50000000 cycles: 14308898 heartbeat IPC: 3.49436 cumulative IPC: 3.49433 (Simulation time: 0 hr 1 min 17 sec) 
Heartbeat CPU 0 instructions: 60000000 cycles: 17170537 heartbeat IPC: 3.4945 cumulative IPC: 3.49436 (Simulation time: 0 hr 1 min 31 sec) 
Heartbeat CPU 0 instructions: 70000003 cycles: 20032210 heartbeat IPC: 3.49446 cumulative IPC: 3.49437 (Simulation time: 0 hr 1 min 46 sec) 
Heartbeat CPU 0 instructions: 80000001 cycles: 22893987 heartbeat IPC: 3.49433 cumulative IPC: 3.49437 (Simulation time: 0 hr 2 min 1 sec) 
Heartbeat CPU 0 instructions: 90000001 cycles: 25755736 heartbeat IPC: 3.49437 cumulative IPC: 3.49437 (Simulation time: 0 hr 2 min 16 sec) 
Heartbeat CPU 0 instructions: 100000002 cycles: 28617441 heartbeat IPC: 3.49442 cumulative IPC: 3.49437 (Simulation time: 0 hr 2 min 31 sec) 

Warmup complete CPU 0 instructions: 100000002 cycles: 28617441 (Simulation time: 0 hr 2 min 31 sec) 

Heartbeat CPU 0 instructions: 110000000 cycles: 33058161 heartbeat IPC: 2.25189 cumulative IPC: 2.25189 (Simulation time: 0 hr 2 min 43 sec) 
Heartbeat CPU 0 instructions: 120000000 cycles: 37504398 heartbeat IPC: 2.24909 cumulative IPC: 2.25049 (Simulation time: 0 hr 2 min 56 sec) 
Heartbeat CPU 0 instructions: 130000003 cycles: 41953489 heartbeat IPC: 2.24765 cumulative IPC: 2.24954 (Simulation time: 0 hr 3 min 9 sec) 
Heartbeat CPU 0 instructions: 140000002 cycles: 46399053 heartbeat IPC: 2.24943 cumulative IPC: 2.24951 (Simulation time: 0 hr 3 min 21 sec) 
Heartbeat CPU 0 instructions: 150000000 cycles: 50843561 heartbeat IPC: 2.24997 cumulative IPC: 2.24961 (Simulation time: 0 hr 3 min 34 sec) 
Heartbeat CPU 0 instructions: 160000003 cycles: 55293141 heartbeat IPC: 2.2474 cumulative IPC: 2.24924 (Simulation time: 0 hr 3 min 47 sec) 
Heartbeat CPU 0 instructions: 170000000 cycles: 59753568 heartbeat IPC: 2.24194 cumulative IPC: 2.24819 (Simulation time: 0 hr 4 min 0 sec) 
Heartbeat CPU 0 instructions: 180000001 cycles: 64199657 heartbeat IPC: 2.24917 cumulative IPC: 2.24831 (Simulation time: 0 hr 4 min 13 sec) 
Heartbeat CPU 0 instructions: 190000002 cycles: 68639835 heartbeat IPC: 2.25216 cumulative IPC: 2.24874 (Simulation time: 0 hr 4 min 25 sec) 
Heartbeat CPU 0 instructions: 200000000 cycles: 73078858 heartbeat IPC: 2.25275 cumulative IPC: 2.24914 (Simulation time: 0 hr 4 min 38 sec) 
Heartbeat CPU 0 instructions: 210000003 cycles: 77519335 heartbeat IPC: 2.25201 cumulative IPC: 2.2494 (Simulation time: 0 hr 4 min 51 sec) 
Heartbeat CPU 0 instructions: 220000000 cycles: 81961538 heartbeat IPC: 2.25113 cumulative IPC: 2.24955 (Simulation time: 0 hr 5 min 3 sec) 
Heartbeat CPU 0 instructions: 230000002 cycles: 86404313 heartbeat IPC: 2.25085 cumulative IPC: 2.24965 (Simulation time: 0 hr 5 min 16 sec) 
Heartbeat CPU 0 instructions: 240000001 cycles: 90846766 heartbeat IPC: 2.25101 cumulative IPC: 2.24974 (Simulation time: 0 hr 5 min 29 sec) 
Heartbeat CPU 0 instructions: 250000000 cycles: 95291782 heartbeat IPC: 2.24971 cumulative IPC: 2.24974 (Simulation time: 0 hr 5 min 42 sec) 
Heartbeat CPU 0 instructions: 260000003 cycles: 99734786 heartbeat IPC: 2.25073 cumulative IPC: 2.2498 (Simulation time: 0 hr 5 min 55 sec) 
Heartbeat CPU 0 instructions: 270000000 cycles: 104179169 heartbeat IPC: 2.25003 cumulative IPC: 2.24982 (Simulation time: 0 hr 6 min 8 sec) 
Heartbeat CPU 0 instructions: 280000003 cycles: 108621236 heartbeat IPC: 2.2512 cumulative IPC: 2.24989 (Simulation time: 0 hr 6 min 20 sec) 
Heartbeat CPU 0 instructions: 290000003 cycles: 113066854 heartbeat IPC: 2.24941 cumulative IPC: 2.24987 (Simulation time: 0 hr 6 min 33 sec) 
Heartbeat CPU 0 instructions: 300000002 cycles: 117509124 heartbeat IPC: 2.2511 cumulative IPC: 2.24993 (Simulation time: 0 hr 6 min 46 sec) 
Heartbeat CPU 0 instructions: 310000003 cycles: 121952177 heartbeat IPC: 2.2507 cumulative IPC: 2.24997 (Simulation time: 0 hr 6 min 59 sec) 
Heartbeat CPU 0 instructions: 320000003 cycles: 126395339 heartbeat IPC: 2.25065 cumulative IPC: 2.25 (Simulation time: 0 hr 7 min 12 sec) 
Heartbeat CPU 0 instructions: 330000000 cycles: 130839328 heartbeat IPC: 2.25023 cumulative IPC: 2.25001 (Simulation time: 0 hr 7 min 25 sec) 
Heartbeat CPU 0 instructions: 340000002 cycles: 135283516 heartbeat IPC: 2.25013 cumulative IPC: 2.25001 (Simulation time: 0 hr 7 min 38 sec) 
Heartbeat CPU 0 instructions: 350000000 cycles: 139725798 heartbeat IPC: 2.25109 cumulative IPC: 2.25006 (Simulation time: 0 hr 7 min 51 sec) 
Heartbeat CPU 0 instructions: 360000001 cycles: 144166953 heartbeat IPC: 2.25167 cumulative IPC: 2.25012 (Simulation time: 0 hr 8 min 4 sec) 
Heartbeat CPU 0 instructions: 370000002 cycles: 148609708 heartbeat IPC: 2.25086 cumulative IPC: 2.25014 (Simulation time: 0 hr 8 min 17 sec) 
Heartbeat CPU 0 instructions: 380000002 cycles: 153053646 heartbeat IPC: 2.25026 cumulative IPC: 2.25015 (Simulation time: 0 hr 8 min 30 sec) 
Heartbeat CPU 0 instructions: 390000000 cycles: 157497507 heartbeat IPC: 2.25029 cumulative IPC: 2.25015 (Simulation time: 0 hr 8 min 43 sec) 
Heartbeat CPU 0 instructions: 400000002 cycles: 161939444 heartbeat IPC: 2.25127 cumulative IPC: 2.25019 (Simulation time: 0 hr 8 min 56 sec) 
Heartbeat CPU 0 instructions: 410000002 cycles: 166383140 heartbeat IPC: 2.25038 cumulative IPC: 2.2502 (Simulation time: 0 hr 9 min 9 sec) 
Heartbeat CPU 0 instructions: 420000001 cycles: 170826927 heartbeat IPC: 2.25033 cumulative IPC: 2.2502 (Simulation time: 0 hr 9 min 22 sec) 
Heartbeat CPU 0 instructions: 430000003 cycles: 175270786 heartbeat IPC: 2.2503 cumulative IPC: 2.2502 (Simulation time: 0 hr 9 min 34 sec) 
Heartbeat CPU 0 instructions: 440000000 cycles: 179712831 heartbeat IPC: 2.25121 cumulative IPC: 2.25023 (Simulation time: 0 hr 9 min 47 sec) 
Heartbeat CPU 0 instructions: 450000000 cycles: 184155440 heartbeat IPC: 2.25093 cumulative IPC: 2.25025 (Simulation time: 0 hr 10 min 0 sec) 
Heartbeat CPU 0 instructions: 460000002 cycles: 188598082 heartbeat IPC: 2.25091 cumulative IPC: 2.25027 (Simulation time: 0 hr 10 min 13 sec) 
Heartbeat CPU 0 instructions: 470000003 cycles: 193042071 heartbeat IPC: 2.25023 cumulative IPC: 2.25027 (Simulation time: 0 hr 10 min 26 sec) 
Heartbeat CPU 0 instructions: 480000000 cycles: 197482657 heartbeat IPC: 2.25195 cumulative IPC: 2.25032 (Simulation time: 0 hr 10 min 39 sec) 
Heartbeat CPU 0 instructions: 490000001 cycles: 201925814 heartbeat IPC: 2.25065 cumulative IPC: 2.25032 (Simulation time: 0 hr 10 min 51 sec) 
Heartbeat CPU 0 instructions: 500000000 cycles: 206367801 heartbeat IPC: 2.25124 cumulative IPC: 2.25035 (Simulation time: 0 hr 11 min 4 sec) 
Heartbeat CPU 0 instructions: 510000000 cycles: 210811351 heartbeat IPC: 2.25045 cumulative IPC: 2.25035 (Simulation time: 0 hr 11 min 17 sec) 
Heartbeat CPU 0 instructions: 520000001 cycles: 215253631 heartbeat IPC: 2.2511 cumulative IPC: 2.25037 (Simulation time: 0 hr 11 min 30 sec) 
Heartbeat CPU 0 instructions: 530000003 cycles: 219696000 heartbeat IPC: 2.25105 cumulative IPC: 2.25038 (Simulation time: 0 hr 11 min 43 sec) 
Heartbeat CPU 0 instructions: 540000001 cycles: 224137486 heartbeat IPC: 2.2515 cumulative IPC: 2.25041 (Simulation time: 0 hr 11 min 56 sec) 
Heartbeat CPU 0 instructions: 550000000 cycles: 228579965 heartbeat IPC: 2.251 cumulative IPC: 2.25042 (Simulation time: 0 hr 12 min 8 sec) 
Heartbeat CPU 0 instructions: 560000002 cycles: 233023359 heartbeat IPC: 2.25053 cumulative IPC: 2.25042 (Simulation time: 0 hr 12 min 21 sec) 
Heartbeat CPU 0 instructions: 570000001 cycles: 237466300 heartbeat IPC: 2.25076 cumulative IPC: 2.25043 (Simulation time: 0 hr 12 min 34 sec) 
Heartbeat CPU 0 instructions: 580000000 cycles: 241913791 heartbeat IPC: 2.24846 cumulative IPC: 2.25039 (Simulation time: 0 hr 12 min 47 sec) 
Heartbeat CPU 0 instructions: 590000002 cycles: 246360583 heartbeat IPC: 2.24881 cumulative IPC: 2.25036 (Simulation time: 0 hr 13 min 0 sec) 
Heartbeat CPU 0 instructions: 600000003 cycles: 250808225 heartbeat IPC: 2.24838 cumulative IPC: 2.25032 (Simulation time: 0 hr 13 min 13 sec) 
Heartbeat CPU 0 instructions: 610000001 cycles: 255253950 heartbeat IPC: 2.24935 cumulative IPC: 2.2503 (Simulation time: 0 hr 13 min 26 sec) 
Heartbeat CPU 0 instructions: 620000002 cycles: 259699905 heartbeat IPC: 2.24924 cumulative IPC: 2.25028 (Simulation time: 0 hr 13 min 39 sec) 
Heartbeat CPU 0 instructions: 630000001 cycles: 264144816 heartbeat IPC: 2.24976 cumulative IPC: 2.25027 (Simulation time: 0 hr 13 min 51 sec) 
Heartbeat CPU 0 instructions: 640000002 cycles: 268594277 heartbeat IPC: 2.24746 cumulative IPC: 2.25022 (Simulation time: 0 hr 14 min 4 sec) 
Heartbeat CPU 0 instructions: 650000003 cycles: 273039989 heartbeat IPC: 2.24936 cumulative IPC: 2.2502 (Simulation time: 0 hr 14 min 17 sec) 
Heartbeat CPU 0 instructions: 660000000 cycles: 277486410 heartbeat IPC: 2.249 cumulative IPC: 2.25018 (Simulation time: 0 hr 14 min 30 sec) 
Heartbeat CPU 0 instructions: 670000001 cycles: 281932071 heartbeat IPC: 2.24938 cumulative IPC: 2.25017 (Simulation time: 0 hr 14 min 43 sec) 
Heartbeat CPU 0 instructions: 680000002 cycles: 286380166 heartbeat IPC: 2.24815 cumulative IPC: 2.25013 (Simulation time: 0 hr 14 min 56 sec) 
Heartbeat CPU 0 instructions: 690000002 cycles: 290828865 heartbeat IPC: 2.24785 cumulative IPC: 2.25009 (Simulation time: 0 hr 15 min 9 sec) 
Heartbeat CPU 0 instructions: 700000001 cycles: 295276328 heartbeat IPC: 2.24847 cumulative IPC: 2.25007 (Simulation time: 0 hr 15 min 23 sec) 
Heartbeat CPU 0 instructions: 710000000 cycles: 299723831 heartbeat IPC: 2.24845 cumulative IPC: 2.25004 (Simulation time: 0 hr 15 min 36 sec) 
Heartbeat CPU 0 instructions: 720000001 cycles: 304172343 heartbeat IPC: 2.24794 cumulative IPC: 2.25001 (Simulation time: 0 hr 15 min 49 sec) 
Heartbeat CPU 0 instructions: 730000001 cycles: 308620509 heartbeat IPC: 2.24812 cumulative IPC: 2.24998 (Simulation time: 0 hr 16 min 2 sec) 
Heartbeat CPU 0 instructions: 740000000 cycles: 313071446 heartbeat IPC: 2.24672 cumulative IPC: 2.24992 (Simulation time: 0 hr 16 min 15 sec) 
Heartbeat CPU 0 instructions: 750000001 cycles: 317523616 heartbeat IPC: 2.2461 cumulative IPC: 2.24987 (Simulation time: 0 hr 16 min 28 sec) 
Heartbeat CPU 0 instructions: 760000001 cycles: 321972577 heartbeat IPC: 2.24772 cumulative IPC: 2.24983 (Simulation time: 0 hr 16 min 41 sec) 
Heartbeat CPU 0 instructions: 770000000 cycles: 326422829 heartbeat IPC: 2.24706 cumulative IPC: 2.24979 (Simulation time: 0 hr 16 min 54 sec) 
Heartbeat CPU 0 instructions: 780000001 cycles: 330873512 heartbeat IPC: 2.24685 cumulative IPC: 2.24975 (Simulation time: 0 hr 17 min 7 sec) 
Heartbeat CPU 0 instructions: 790000003 cycles: 335323605 heartbeat IPC: 2.24714 cumulative IPC: 2.24971 (Simulation time: 0 hr 17 min 20 sec) 
Heartbeat CPU 0 instructions: 800000002 cycles: 339776116 heartbeat IPC: 2.24592 cumulative IPC: 2.24966 (Simulation time: 0 hr 17 min 33 sec) 
Heartbeat CPU 0 instructions: 810000003 cycles: 344228465 heartbeat IPC: 2.24601 cumulative IPC: 2.2496 (Simulation time: 0 hr 17 min 46 sec) 
Heartbeat CPU 0 instructions: 820000002 cycles: 348683248 heartbeat IPC: 2.24478 cumulative IPC: 2.24954 (Simulation time: 0 hr 17 min 58 sec) 
Heartbeat CPU 0 instructions: 830000000 cycles: 353134356 heartbeat IPC: 2.24663 cumulative IPC: 2.2495 (Simulation time: 0 hr 18 min 11 sec) 
Heartbeat CPU 0 instructions: 840000001 cycles: 357583880 heartbeat IPC: 2.24743 cumulative IPC: 2.24947 (Simulation time: 0 hr 18 min 24 sec) 
Heartbeat CPU 0 instructions: 850000002 cycles: 362028174 heartbeat IPC: 2.25008 cumulative IPC: 2.24948 (Simulation time: 0 hr 18 min 37 sec) 
Heartbeat CPU 0 instructions: 860000003 cycles: 366478932 heartbeat IPC: 2.24681 cumulative IPC: 2.24944 (Simulation time: 0 hr 18 min 50 sec) 
Heartbeat CPU 0 instructions: 870000000 cycles: 370926451 heartbeat IPC: 2.24844 cumulative IPC: 2.24943 (Simulation time: 0 hr 19 min 2 sec) 
Heartbeat CPU 0 instructions: 880000000 cycles: 375373750 heartbeat IPC: 2.24856 cumulative IPC: 2.24942 (Simulation time: 0 hr 19 min 15 sec) 
Heartbeat CPU 0 instructions: 890000001 cycles: 379819136 heartbeat IPC: 2.24952 cumulative IPC: 2.24942 (Simulation time: 0 hr 19 min 28 sec) 
Heartbeat CPU 0 instructions: 900000001 cycles: 384266912 heartbeat IPC: 2.24831 cumulative IPC: 2.24941 (Simulation time: 0 hr 19 min 41 sec) 
Heartbeat CPU 0 instructions: 910000002 cycles: 388714858 heartbeat IPC: 2.24823 cumulative IPC: 2.24939 (Simulation time: 0 hr 19 min 54 sec) 
Heartbeat CPU 0 instructions: 920000000 cycles: 393162541 heartbeat IPC: 2.24836 cumulative IPC: 2.24938 (Simulation time: 0 hr 20 min 8 sec) 
Heartbeat CPU 0 instructions: 930000003 cycles: 397606802 heartbeat IPC: 2.25009 cumulative IPC: 2.24939 (Simulation time: 0 hr 20 min 21 sec) 
Heartbeat CPU 0 instructions: 940000000 cycles: 402053444 heartbeat IPC: 2.24889 cumulative IPC: 2.24938 (Simulation time: 0 hr 20 min 35 sec) 
Heartbeat CPU 0 instructions: 950000000 cycles: 406499535 heartbeat IPC: 2.24917 cumulative IPC: 2.24938 (Simulation time: 0 hr 20 min 49 sec) 
Heartbeat CPU 0 instructions: 960000003 cycles: 410947635 heartbeat IPC: 2.24815 cumulative IPC: 2.24936 (Simulation time: 0 hr 21 min 2 sec) 
Heartbeat CPU 0 instructions: 970000002 cycles: 415392380 heartbeat IPC: 2.24985 cumulative IPC: 2.24937 (Simulation time: 0 hr 21 min 15 sec) 
Heartbeat CPU 0 instructions: 980000001 cycles: 419839642 heartbeat IPC: 2.24857 cumulative IPC: 2.24936 (Simulation time: 0 hr 21 min 28 sec) 
Heartbeat CPU 0 instructions: 990000000 cycles: 424287283 heartbeat IPC: 2.24838 cumulative IPC: 2.24935 (Simulation time: 0 hr 21 min 41 sec) 
Heartbeat CPU 0 instructions: 1000000003 cycles: 428734134 heartbeat IPC: 2.24878 cumulative IPC: 2.24934 (Simulation time: 0 hr 21 min 53 sec) 
Heartbeat CPU 0 instructions: 1010000000 cycles: 433181130 heartbeat IPC: 2.24871 cumulative IPC: 2.24934 (Simulation time: 0 hr 22 min 6 sec) 
Heartbeat CPU 0 instructions: 1020000001 cycles: 437627003 heartbeat IPC: 2.24928 cumulative IPC: 2.24934 (Simulation time: 0 hr 22 min 19 sec) 
Heartbeat CPU 0 instructions: 1030000003 cycles: 442073324 heartbeat IPC: 2.24905 cumulative IPC: 2.24933 (Simulation time: 0 hr 22 min 32 sec) 
Heartbeat CPU 0 instructions: 1040000002 cycles: 446520137 heartbeat IPC: 2.2488 cumulative IPC: 2.24933 (Simulation time: 0 hr 22 min 45 sec) 
Heartbeat CPU 0 instructions: 1050000000 cycles: 450965764 heartbeat IPC: 2.2494 cumulative IPC: 2.24933 (Simulation time: 0 hr 22 min 58 sec) 
Heartbeat CPU 0 instructions: 1060000003 cycles: 455410931 heartbeat IPC: 2.24963 cumulative IPC: 2.24933 (Simulation time: 0 hr 23 min 11 sec) 
Heartbeat CPU 0 instructions: 1070000000 cycles: 459859131 heartbeat IPC: 2.2481 cumulative IPC: 2.24932 (Simulation time: 0 hr 23 min 24 sec) 
Heartbeat CPU 0 instructions: 1080000001 cycles: 464307219 heartbeat IPC: 2.24816 cumulative IPC: 2.24931 (Simulation time: 0 hr 23 min 37 sec) 
Heartbeat CPU 0 instructions: 1090000003 cycles: 468754328 heartbeat IPC: 2.24865 cumulative IPC: 2.2493 (Simulation time: 0 hr 23 min 50 sec) 
Heartbeat CPU 0 instructions: 1100000000 cycles: 473198527 heartbeat IPC: 2.25012 cumulative IPC: 2.24931 (Simulation time: 0 hr 24 min 2 sec) 
Finished CPU 0 instructions: 1000000001 cycles: 444581095 cumulative IPC: 2.24931 (Simulation time: 0 hr 24 min 2 sec) 

ChampSim completed all CPUs

Region of Interest Statistics

CPU 0 cumulative IPC: 2.24931 instructions: 1000000001 cycles: 444581095
L1D TOTAL     ACCESS:   60820380  HIT:   51920665  MISS:    8899715
L1D LOAD      ACCESS:   60776782  HIT:   51882996  MISS:    8893786
L1D RFO       ACCESS:      43598  HIT:      37669  MISS:       5929
L1D PREFETCH  ACCESS:          0  HIT:          0  MISS:          0
L1D WRITEBACK ACCESS:          0  HIT:          0  MISS:          0
L1D PREFETCH  REQUESTED:          0  ISSUED:          0  USEFUL:          0  USELESS:          0
L1D AVERAGE MISS LATENCY: 22.8156 cycles
L1I TOTAL     ACCESS:  156414326  HIT:  156414326  MISS:          0
L1I LOAD      ACCESS:  156414326  HIT:  156414326  MISS:          0
L1I RFO       ACCESS:          0  HIT:          0  MISS:          0
L1I PREFETCH  ACCESS:          0  HIT:          0  MISS:          0
L1I WRITEBACK ACCESS:          0  HIT:          0  MISS:          0
L1I PREFETCH  REQUESTED:          0  ISSUED:          0  USEFUL:          0  USELESS:          0
L1I AVERAGE MISS LATENCY: -nan cycles
L2C TOTAL     ACCESS:    8914013  HIT:    6666539  MISS:    2247474
L2C LOAD      ACCESS:    8893786  HIT:    6647173  MISS:    2246613
L2C RFO       ACCESS:       5929  HIT:       5068  MISS:        861
L2C PREFETCH  ACCESS:          0  HIT:          0  MISS:          0
L2C WRITEBACK ACCESS:      14298  HIT:      14298  MISS:          0
L2C PREFETCH  REQUESTED:          0  ISSUED:          0  USEFUL:          0  USELESS:          0
L2C AVERAGE MISS LATENCY: 42.6824 cycles
LLC TOTAL     ACCESS:    2251106  HIT:    2211658  MISS:      39448
LLC LOAD      ACCESS:    2246613  HIT:    2207519  MISS:      39094
LLC RFO       ACCESS:        861  HIT:        512  MISS:        349
LLC PREFETCH  ACCESS:          0  HIT:          0  MISS:          0
LLC WRITEBACK ACCESS:       3632  HIT:       3627  MISS:          5
LLC PREFETCH  REQUESTED:          0  ISSUED:          0  USEFUL:          0  USELESS:          0
LLC AVERAGE MISS LATENCY: 152.727 cycles
Major fault: 0 Minor fault: 838

DRAM Statistics
 CHANNEL 0
 RQ ROW_BUFFER_HIT:      11933  ROW_BUFFER_MISS:      27510
 DBUS_CONGESTED:          0
 WQ ROW_BUFFER_HIT:          0  ROW_BUFFER_MISS:        107  FULL:          0

 AVG_CONGESTED_CYCLE: -

CPU 0 Branch Prediction Accuracy: 99.6978% MPKI: 0.312803 Average ROB Occupancy at Mispredict: 151.427

Branch types
NOT_BRANCH: 896497941 89.6498%
BRANCH_DIRECT_JUMP: 5582 0.0005582%
BRANCH_INDIRECT: 0 0%
BRANCH_CONDITIONAL: 103496179 10.3496%
BRANCH_DIRECT_CALL: 0 0%
BRANCH_INDIRECT_CALL: 0 0%
BRANCH_RETURN: 0 0%
BRANCH_OTHER: 0 0%

