
*** ChampSim Multicore Out-of-Order Simulator ***

Warmup Instructions: 100000000
Simulation Instructions: 1000000000
Number of CPUs: 1
LLC sets: 2048
LLC ways: 16
Off-chip DRAM Size: 4096 MB Channels: 1 Width: 64-bit Data Rate: 3200 MT/s

CPU 0 runs /scratch/user/kevin.weston/dpc3-traces/638.champsimtrace.xz
CPU 0 Bimodal branch predictor
Per-line RRPV Initialized
PRRIP State Initialized
Assign SAMPLER_SET[0]: 454  LLC: 2048
SAMPLER_SET[0]: 454
Assign SAMPLER_SET[1]: 1662  LLC: 2048
SAMPLER_SET[1]: 1662
Assign SAMPLER_SET[2]: 1921  LLC: 2048
SAMPLER_SET[2]: 1921
Assign SAMPLER_SET[3]: 1131  LLC: 2048
SAMPLER_SET[3]: 1131
Assign SAMPLER_SET[4]: 331  LLC: 2048
SAMPLER_SET[4]: 331
Assign SAMPLER_SET[5]: 1531  LLC: 2048
SAMPLER_SET[5]: 1531
Assign SAMPLER_SET[6]: 482  LLC: 2048
SAMPLER_SET[6]: 482
Assign SAMPLER_SET[7]: 1275  LLC: 2048
SAMPLER_SET[7]: 1275
Assign SAMPLER_SET[8]: 1876  LLC: 2048
SAMPLER_SET[8]: 1876
Assign SAMPLER_SET[9]: 2038  LLC: 2048
SAMPLER_SET[9]: 2038
Assign SAMPLER_SET[10]: 701  LLC: 2048
SAMPLER_SET[10]: 701
Assign SAMPLER_SET[11]: 479  LLC: 2048
SAMPLER_SET[11]: 479
Assign SAMPLER_SET[12]: 892  LLC: 2048
SAMPLER_SET[12]: 892
Assign SAMPLER_SET[13]: 1820  LLC: 2048
SAMPLER_SET[13]: 1820
Assign SAMPLER_SET[14]: 1505  LLC: 2048
SAMPLER_SET[14]: 1505
Assign SAMPLER_SET[15]: 1159  LLC: 2048
SAMPLER_SET[15]: 1159
Assign SAMPLER_SET[16]: 513  LLC: 2048
SAMPLER_SET[16]: 513
Assign SAMPLER_SET[17]: 703  LLC: 2048
SAMPLER_SET[17]: 703
Assign SAMPLER_SET[18]: 561  LLC: 2048
SAMPLER_SET[18]: 561
Assign SAMPLER_SET[19]: 990  LLC: 2048
SAMPLER_SET[19]: 990
Assign SAMPLER_SET[20]: 342  LLC: 2048
SAMPLER_SET[20]: 342
Assign SAMPLER_SET[21]: 882  LLC: 2048
SAMPLER_SET[21]: 882
Assign SAMPLER_SET[22]: 15  LLC: 2048
SAMPLER_SET[22]: 15
Assign SAMPLER_SET[23]: 71  LLC: 2048
SAMPLER_SET[23]: 71
Assign SAMPLER_SET[24]: 1127  LLC: 2048
SAMPLER_SET[24]: 1127
Assign SAMPLER_SET[25]: 1382  LLC: 2048
SAMPLER_SET[25]: 1382
Assign SAMPLER_SET[26]: 647  LLC: 2048
SAMPLER_SET[26]: 647
Assign SAMPLER_SET[27]: 857  LLC: 2048
SAMPLER_SET[27]: 857
Assign SAMPLER_SET[28]: 1450  LLC: 2048
SAMPLER_SET[28]: 1450
Assign SAMPLER_SET[29]: 1160  LLC: 2048
SAMPLER_SET[29]: 1160
Assign SAMPLER_SET[30]: 1852  LLC: 2048
SAMPLER_SET[30]: 1852
Assign SAMPLER_SET[31]: 1881  LLC: 2048
SAMPLER_SET[31]: 1881
Assign SAMPLER_SET[32]: 1770  LLC: 2048
SAMPLER_SET[32]: 1770
Assign SAMPLER_SET[33]: 1622  LLC: 2048
SAMPLER_SET[33]: 1622
Assign SAMPLER_SET[34]: 275  LLC: 2048
SAMPLER_SET[34]: 275
Assign SAMPLER_SET[35]: 635  LLC: 2048
SAMPLER_SET[35]: 635
Assign SAMPLER_SET[36]: 466  LLC: 2048
SAMPLER_SET[36]: 466
Assign SAMPLER_SET[37]: 1413  LLC: 2048
SAMPLER_SET[37]: 1413
Assign SAMPLER_SET[38]: 417  LLC: 2048
SAMPLER_SET[38]: 417
Assign SAMPLER_SET[39]: 472  LLC: 2048
SAMPLER_SET[39]: 472
Assign SAMPLER_SET[40]: 1340  LLC: 2048
SAMPLER_SET[40]: 1340
Assign SAMPLER_SET[41]: 852  LLC: 2048
SAMPLER_SET[41]: 852
Assign SAMPLER_SET[42]: 1365  LLC: 2048
SAMPLER_SET[42]: 1365
Assign SAMPLER_SET[43]: 47  LLC: 2048
SAMPLER_SET[43]: 47
Assign SAMPLER_SET[44]: 823  LLC: 2048
SAMPLER_SET[44]: 823
Assign SAMPLER_SET[45]: 686  LLC: 2048
SAMPLER_SET[45]: 686
Assign SAMPLER_SET[46]: 1637  LLC: 2048
SAMPLER_SET[46]: 1637
Assign SAMPLER_SET[47]: 1115  LLC: 2048
SAMPLER_SET[47]: 1115
Assign SAMPLER_SET[48]: 986  LLC: 2048
SAMPLER_SET[48]: 986
Assign SAMPLER_SET[49]: 258  LLC: 2048
SAMPLER_SET[49]: 258
Assign SAMPLER_SET[50]: 633  LLC: 2048
SAMPLER_SET[50]: 633
Assign SAMPLER_SET[51]: 920  LLC: 2048
SAMPLER_SET[51]: 920
Assign SAMPLER_SET[52]: 204  LLC: 2048
SAMPLER_SET[52]: 204
Assign SAMPLER_SET[53]: 227  LLC: 2048
SAMPLER_SET[53]: 227
Assign SAMPLER_SET[54]: 1818  LLC: 2048
SAMPLER_SET[54]: 1818
Assign SAMPLER_SET[55]: 886  LLC: 2048
SAMPLER_SET[55]: 886
Assign SAMPLER_SET[56]: 1422  LLC: 2048
SAMPLER_SET[56]: 1422
Assign SAMPLER_SET[57]: 607  LLC: 2048
SAMPLER_SET[57]: 607
Assign SAMPLER_SET[58]: 217  LLC: 2048
SAMPLER_SET[58]: 217
Assign SAMPLER_SET[59]: 1945  LLC: 2048
SAMPLER_SET[59]: 1945
Assign SAMPLER_SET[60]: 143  LLC: 2048
SAMPLER_SET[60]: 143
Assign SAMPLER_SET[61]: 1311  LLC: 2048
SAMPLER_SET[61]: 1311
Assign SAMPLER_SET[62]: 319  LLC: 2048
SAMPLER_SET[62]: 319
Assign SAMPLER_SET[63]: 1846  LLC: 2048
SAMPLER_SET[63]: 1846
Heartbeat CPU 0 instructions: 10000001 cycles: 2862010 heartbeat IPC: 3.49405 cumulative IPC: 3.49405 (Simulation time: 0 hr 0 min 16 sec) 
Heartbeat CPU 0 instructions: 20000002 cycles: 5723742 heartbeat IPC: 3.49439 cumulative IPC: 3.49422 (Simulation time: 0 hr 0 min 31 sec) 
Heartbeat CPU 0 instructions: 30000000 cycles: 8585403 heartbeat IPC: 3.49447 cumulative IPC: 3.4943 (Simulation time: 0 hr 0 min 46 sec) 
Heartbeat CPU 0 instructions: 40000001 cycles: 11447110 heartbeat IPC: 3.49442 cumulative IPC: 3.49433 (Simulation time: 0 hr 1 min 1 sec) 
Heartbeat CPU 0 instructions: 50000000 cycles: 14308811 heartbeat IPC: 3.49442 cumulative IPC: 3.49435 (Simulation time: 0 hr 1 min 16 sec) 
Heartbeat CPU 0 instructions: 60000000 cycles: 17170382 heartbeat IPC: 3.49458 cumulative IPC: 3.49439 (Simulation time: 0 hr 1 min 31 sec) 
Heartbeat CPU 0 instructions: 70000003 cycles: 20032001 heartbeat IPC: 3.49453 cumulative IPC: 3.49441 (Simulation time: 0 hr 1 min 46 sec) 
Heartbeat CPU 0 instructions: 80000001 cycles: 22893720 heartbeat IPC: 3.4944 cumulative IPC: 3.49441 (Simulation time: 0 hr 2 min 2 sec) 
Heartbeat CPU 0 instructions: 90000001 cycles: 25755405 heartbeat IPC: 3.49444 cumulative IPC: 3.49441 (Simulation time: 0 hr 2 min 17 sec) 
Heartbeat CPU 0 instructions: 100000002 cycles: 28617063 heartbeat IPC: 3.49448 cumulative IPC: 3.49442 (Simulation time: 0 hr 2 min 32 sec) 

Warmup complete CPU 0 instructions: 100000002 cycles: 28617063 (Simulation time: 0 hr 2 min 32 sec) 

Heartbeat CPU 0 instructions: 110000000 cycles: 33056868 heartbeat IPC: 2.25235 cumulative IPC: 2.25235 (Simulation time: 0 hr 2 min 45 sec) 
Heartbeat CPU 0 instructions: 120000000 cycles: 37500119 heartbeat IPC: 2.2506 cumulative IPC: 2.25148 (Simulation time: 0 hr 2 min 58 sec) 
Heartbeat CPU 0 instructions: 130000003 cycles: 41940815 heartbeat IPC: 2.2519 cumulative IPC: 2.25162 (Simulation time: 0 hr 3 min 10 sec) 
Heartbeat CPU 0 instructions: 140000002 cycles: 46377069 heartbeat IPC: 2.25415 cumulative IPC: 2.25225 (Simulation time: 0 hr 3 min 23 sec) 
Heartbeat CPU 0 instructions: 150000000 cycles: 50814271 heartbeat IPC: 2.25367 cumulative IPC: 2.25254 (Simulation time: 0 hr 3 min 36 sec) 
Heartbeat CPU 0 instructions: 160000003 cycles: 55255390 heartbeat IPC: 2.25169 cumulative IPC: 2.25239 (Simulation time: 0 hr 3 min 48 sec) 
Heartbeat CPU 0 instructions: 170000000 cycles: 59703288 heartbeat IPC: 2.24825 cumulative IPC: 2.2518 (Simulation time: 0 hr 4 min 1 sec) 
Heartbeat CPU 0 instructions: 180000001 cycles: 64140929 heartbeat IPC: 2.25345 cumulative IPC: 2.25201 (Simulation time: 0 hr 4 min 14 sec) 
Heartbeat CPU 0 instructions: 190000002 cycles: 68573486 heartbeat IPC: 2.25603 cumulative IPC: 2.25245 (Simulation time: 0 hr 4 min 26 sec) 
Heartbeat CPU 0 instructions: 200000000 cycles: 73004980 heartbeat IPC: 2.25657 cumulative IPC: 2.25287 (Simulation time: 0 hr 4 min 39 sec) 
Heartbeat CPU 0 instructions: 210000003 cycles: 77436593 heartbeat IPC: 2.25652 cumulative IPC: 2.2532 (Simulation time: 0 hr 4 min 51 sec) 
Heartbeat CPU 0 instructions: 220000000 cycles: 81870813 heartbeat IPC: 2.25519 cumulative IPC: 2.25336 (Simulation time: 0 hr 5 min 4 sec) 
Heartbeat CPU 0 instructions: 230000002 cycles: 86303897 heartbeat IPC: 2.25577 cumulative IPC: 2.25355 (Simulation time: 0 hr 5 min 17 sec) 
Heartbeat CPU 0 instructions: 240000001 cycles: 90736715 heartbeat IPC: 2.2559 cumulative IPC: 2.25372 (Simulation time: 0 hr 5 min 30 sec) 
Heartbeat CPU 0 instructions: 250000000 cycles: 95171748 heartbeat IPC: 2.25477 cumulative IPC: 2.25379 (Simulation time: 0 hr 5 min 42 sec) 
Heartbeat CPU 0 instructions: 260000003 cycles: 99607144 heartbeat IPC: 2.25459 cumulative IPC: 2.25384 (Simulation time: 0 hr 5 min 55 sec) 
Heartbeat CPU 0 instructions: 270000000 cycles: 104048759 heartbeat IPC: 2.25143 cumulative IPC: 2.25369 (Simulation time: 0 hr 6 min 8 sec) 
Heartbeat CPU 0 instructions: 280000003 cycles: 108490611 heartbeat IPC: 2.25131 cumulative IPC: 2.25356 (Simulation time: 0 hr 6 min 20 sec) 
Heartbeat CPU 0 instructions: 290000001 cycles: 112935000 heartbeat IPC: 2.25003 cumulative IPC: 2.25338 (Simulation time: 0 hr 6 min 33 sec) 
Heartbeat CPU 0 instructions: 300000002 cycles: 117378185 heartbeat IPC: 2.25064 cumulative IPC: 2.25324 (Simulation time: 0 hr 6 min 46 sec) 
Heartbeat CPU 0 instructions: 310000003 cycles: 121820460 heartbeat IPC: 2.2511 cumulative IPC: 2.25314 (Simulation time: 0 hr 6 min 59 sec) 
Heartbeat CPU 0 instructions: 320000003 cycles: 126263048 heartbeat IPC: 2.25094 cumulative IPC: 2.25304 (Simulation time: 0 hr 7 min 12 sec) 
Heartbeat CPU 0 instructions: 330000000 cycles: 130703071 heartbeat IPC: 2.25224 cumulative IPC: 2.253 (Simulation time: 0 hr 7 min 25 sec) 
Heartbeat CPU 0 instructions: 340000002 cycles: 135141491 heartbeat IPC: 2.25305 cumulative IPC: 2.253 (Simulation time: 0 hr 7 min 37 sec) 
Heartbeat CPU 0 instructions: 350000000 cycles: 139577933 heartbeat IPC: 2.25406 cumulative IPC: 2.25305 (Simulation time: 0 hr 7 min 50 sec) 
Heartbeat CPU 0 instructions: 360000001 cycles: 144014503 heartbeat IPC: 2.25399 cumulative IPC: 2.25308 (Simulation time: 0 hr 8 min 3 sec) 
Heartbeat CPU 0 instructions: 370000003 cycles: 148448130 heartbeat IPC: 2.25549 cumulative IPC: 2.25317 (Simulation time: 0 hr 8 min 16 sec) 
Heartbeat CPU 0 instructions: 380000001 cycles: 152879945 heartbeat IPC: 2.25641 cumulative IPC: 2.25329 (Simulation time: 0 hr 8 min 29 sec) 
Heartbeat CPU 0 instructions: 390000001 cycles: 157308737 heartbeat IPC: 2.25795 cumulative IPC: 2.25345 (Simulation time: 0 hr 8 min 41 sec) 
Heartbeat CPU 0 instructions: 400000002 cycles: 161736870 heartbeat IPC: 2.25829 cumulative IPC: 2.25361 (Simulation time: 0 hr 8 min 54 sec) 
Heartbeat CPU 0 instructions: 410000002 cycles: 166165527 heartbeat IPC: 2.25802 cumulative IPC: 2.25375 (Simulation time: 0 hr 9 min 7 sec) 
Heartbeat CPU 0 instructions: 420000001 cycles: 170596403 heartbeat IPC: 2.25689 cumulative IPC: 2.25385 (Simulation time: 0 hr 9 min 19 sec) 
Heartbeat CPU 0 instructions: 430000003 cycles: 175029174 heartbeat IPC: 2.25593 cumulative IPC: 2.25391 (Simulation time: 0 hr 9 min 32 sec) 
Heartbeat CPU 0 instructions: 440000000 cycles: 179463734 heartbeat IPC: 2.25501 cumulative IPC: 2.25394 (Simulation time: 0 hr 9 min 45 sec) 
Heartbeat CPU 0 instructions: 450000000 cycles: 183894276 heartbeat IPC: 2.25706 cumulative IPC: 2.25403 (Simulation time: 0 hr 9 min 58 sec) 
Heartbeat CPU 0 instructions: 460000002 cycles: 188322323 heartbeat IPC: 2.25833 cumulative IPC: 2.25415 (Simulation time: 0 hr 10 min 10 sec) 
Heartbeat CPU 0 instructions: 470000003 cycles: 192751764 heartbeat IPC: 2.25762 cumulative IPC: 2.25425 (Simulation time: 0 hr 10 min 23 sec) 
Heartbeat CPU 0 instructions: 480000000 cycles: 197179276 heartbeat IPC: 2.2586 cumulative IPC: 2.25436 (Simulation time: 0 hr 10 min 36 sec) 
Heartbeat CPU 0 instructions: 490000001 cycles: 201607827 heartbeat IPC: 2.25808 cumulative IPC: 2.25446 (Simulation time: 0 hr 10 min 48 sec) 
Heartbeat CPU 0 instructions: 500000000 cycles: 206036179 heartbeat IPC: 2.25818 cumulative IPC: 2.25455 (Simulation time: 0 hr 11 min 1 sec) 
Heartbeat CPU 0 instructions: 510000000 cycles: 210463631 heartbeat IPC: 2.25864 cumulative IPC: 2.25465 (Simulation time: 0 hr 11 min 14 sec) 
Heartbeat CPU 0 instructions: 520000001 cycles: 214893571 heartbeat IPC: 2.25737 cumulative IPC: 2.25471 (Simulation time: 0 hr 11 min 26 sec) 
Heartbeat CPU 0 instructions: 530000003 cycles: 219323751 heartbeat IPC: 2.25725 cumulative IPC: 2.25477 (Simulation time: 0 hr 11 min 39 sec) 
Heartbeat CPU 0 instructions: 540000001 cycles: 223751971 heartbeat IPC: 2.25824 cumulative IPC: 2.25485 (Simulation time: 0 hr 11 min 52 sec) 
Heartbeat CPU 0 instructions: 550000000 cycles: 228180274 heartbeat IPC: 2.2582 cumulative IPC: 2.25492 (Simulation time: 0 hr 12 min 4 sec) 
Heartbeat CPU 0 instructions: 560000002 cycles: 232607998 heartbeat IPC: 2.2585 cumulative IPC: 2.255 (Simulation time: 0 hr 12 min 17 sec) 
Heartbeat CPU 0 instructions: 570000001 cycles: 237037384 heartbeat IPC: 2.25765 cumulative IPC: 2.25506 (Simulation time: 0 hr 12 min 29 sec) 
Heartbeat CPU 0 instructions: 580000000 cycles: 241465578 heartbeat IPC: 2.25826 cumulative IPC: 2.25513 (Simulation time: 0 hr 12 min 42 sec) 
Heartbeat CPU 0 instructions: 590000003 cycles: 245893591 heartbeat IPC: 2.25835 cumulative IPC: 2.25519 (Simulation time: 0 hr 12 min 54 sec) 
Heartbeat CPU 0 instructions: 600000003 cycles: 250324167 heartbeat IPC: 2.25704 cumulative IPC: 2.25523 (Simulation time: 0 hr 13 min 7 sec) 
Heartbeat CPU 0 instructions: 610000001 cycles: 254752713 heartbeat IPC: 2.25808 cumulative IPC: 2.25528 (Simulation time: 0 hr 13 min 20 sec) 
Heartbeat CPU 0 instructions: 620000002 cycles: 259181664 heartbeat IPC: 2.25787 cumulative IPC: 2.25533 (Simulation time: 0 hr 13 min 32 sec) 
Heartbeat CPU 0 instructions: 630000001 cycles: 263607939 heartbeat IPC: 2.25924 cumulative IPC: 2.25541 (Simulation time: 0 hr 13 min 45 sec) 
Heartbeat CPU 0 instructions: 640000002 cycles: 268036670 heartbeat IPC: 2.25798 cumulative IPC: 2.25545 (Simulation time: 0 hr 13 min 57 sec) 
Heartbeat CPU 0 instructions: 650000001 cycles: 272463124 heartbeat IPC: 2.25914 cumulative IPC: 2.25552 (Simulation time: 0 hr 14 min 10 sec) 
Heartbeat CPU 0 instructions: 660000000 cycles: 276893195 heartbeat IPC: 2.2573 cumulative IPC: 2.25555 (Simulation time: 0 hr 14 min 23 sec) 
Heartbeat CPU 0 instructions: 670000001 cycles: 281323506 heartbeat IPC: 2.25718 cumulative IPC: 2.25558 (Simulation time: 0 hr 14 min 35 sec) 
Heartbeat CPU 0 instructions: 680000002 cycles: 285752942 heartbeat IPC: 2.25762 cumulative IPC: 2.25562 (Simulation time: 0 hr 14 min 48 sec) 
Heartbeat CPU 0 instructions: 690000002 cycles: 290185075 heartbeat IPC: 2.25625 cumulative IPC: 2.25563 (Simulation time: 0 hr 15 min 0 sec) 
Heartbeat CPU 0 instructions: 700000001 cycles: 294615877 heartbeat IPC: 2.25693 cumulative IPC: 2.25565 (Simulation time: 0 hr 15 min 13 sec) 
Heartbeat CPU 0 instructions: 710000000 cycles: 299046305 heartbeat IPC: 2.25712 cumulative IPC: 2.25567 (Simulation time: 0 hr 15 min 26 sec) 
Heartbeat CPU 0 instructions: 720000001 cycles: 303484873 heartbeat IPC: 2.25298 cumulative IPC: 2.25563 (Simulation time: 0 hr 15 min 38 sec) 
Heartbeat CPU 0 instructions: 730000001 cycles: 307976597 heartbeat IPC: 2.22632 cumulative IPC: 2.25516 (Simulation time: 0 hr 15 min 51 sec) 
Heartbeat CPU 0 instructions: 740000000 cycles: 312533099 heartbeat IPC: 2.19467 cumulative IPC: 2.25419 (Simulation time: 0 hr 16 min 4 sec) 
Heartbeat CPU 0 instructions: 750000001 cycles: 317130912 heartbeat IPC: 2.17495 cumulative IPC: 2.25292 (Simulation time: 0 hr 16 min 17 sec) 
Heartbeat CPU 0 instructions: 760000001 cycles: 321773850 heartbeat IPC: 2.15381 cumulative IPC: 2.25135 (Simulation time: 0 hr 16 min 29 sec) 
Heartbeat CPU 0 instructions: 770000000 cycles: 326464181 heartbeat IPC: 2.13205 cumulative IPC: 2.24948 (Simulation time: 0 hr 16 min 42 sec) 
Heartbeat CPU 0 instructions: 780000001 cycles: 331199998 heartbeat IPC: 2.11157 cumulative IPC: 2.24732 (Simulation time: 0 hr 16 min 55 sec) 
Heartbeat CPU 0 instructions: 790000003 cycles: 335974493 heartbeat IPC: 2.09446 cumulative IPC: 2.24494 (Simulation time: 0 hr 17 min 8 sec) 
Heartbeat CPU 0 instructions: 800000002 cycles: 340780000 heartbeat IPC: 2.08095 cumulative IPC: 2.24242 (Simulation time: 0 hr 17 min 21 sec) 
Heartbeat CPU 0 instructions: 810000003 cycles: 345595332 heartbeat IPC: 2.0767 cumulative IPC: 2.2399 (Simulation time: 0 hr 17 min 34 sec) 
Heartbeat CPU 0 instructions: 820000002 cycles: 350413345 heartbeat IPC: 2.07554 cumulative IPC: 2.23744 (Simulation time: 0 hr 17 min 47 sec) 
Heartbeat CPU 0 instructions: 830000000 cycles: 355227400 heartbeat IPC: 2.07725 cumulative IPC: 2.23508 (Simulation time: 0 hr 18 min 0 sec) 
Heartbeat CPU 0 instructions: 840000001 cycles: 360048859 heartbeat IPC: 2.07406 cumulative IPC: 2.23274 (Simulation time: 0 hr 18 min 13 sec) 
Heartbeat CPU 0 instructions: 850000002 cycles: 364861921 heartbeat IPC: 2.07768 cumulative IPC: 2.23052 (Simulation time: 0 hr 18 min 26 sec) 
Heartbeat CPU 0 instructions: 860000002 cycles: 369306506 heartbeat IPC: 2.24993 cumulative IPC: 2.23077 (Simulation time: 0 hr 18 min 38 sec) 
Heartbeat CPU 0 instructions: 870000000 cycles: 373736990 heartbeat IPC: 2.25709 cumulative IPC: 2.23111 (Simulation time: 0 hr 18 min 51 sec) 
Heartbeat CPU 0 instructions: 880000000 cycles: 378168603 heartbeat IPC: 2.25651 cumulative IPC: 2.23143 (Simulation time: 0 hr 19 min 3 sec) 
Heartbeat CPU 0 instructions: 890000001 cycles: 382629548 heartbeat IPC: 2.24168 cumulative IPC: 2.23156 (Simulation time: 0 hr 19 min 16 sec) 
Heartbeat CPU 0 instructions: 900000001 cycles: 387097046 heartbeat IPC: 2.23839 cumulative IPC: 2.23164 (Simulation time: 0 hr 19 min 29 sec) 
Heartbeat CPU 0 instructions: 910000002 cycles: 391527748 heartbeat IPC: 2.25698 cumulative IPC: 2.23195 (Simulation time: 0 hr 19 min 41 sec) 
Heartbeat CPU 0 instructions: 920000000 cycles: 395958404 heartbeat IPC: 2.257 cumulative IPC: 2.23226 (Simulation time: 0 hr 19 min 53 sec) 
Heartbeat CPU 0 instructions: 930000002 cycles: 400386664 heartbeat IPC: 2.25822 cumulative IPC: 2.23257 (Simulation time: 0 hr 20 min 6 sec) 
Heartbeat CPU 0 instructions: 940000000 cycles: 404815130 heartbeat IPC: 2.25812 cumulative IPC: 2.23287 (Simulation time: 0 hr 20 min 18 sec) 
Heartbeat CPU 0 instructions: 950000000 cycles: 409244200 heartbeat IPC: 2.25781 cumulative IPC: 2.23316 (Simulation time: 0 hr 20 min 31 sec) 
Heartbeat CPU 0 instructions: 960000003 cycles: 413675200 heartbeat IPC: 2.25683 cumulative IPC: 2.23343 (Simulation time: 0 hr 20 min 43 sec) 
Heartbeat CPU 0 instructions: 970000002 cycles: 418107432 heartbeat IPC: 2.2562 cumulative IPC: 2.23369 (Simulation time: 0 hr 20 min 56 sec) 
Heartbeat CPU 0 instructions: 980000002 cycles: 422541179 heartbeat IPC: 2.25543 cumulative IPC: 2.23393 (Simulation time: 0 hr 21 min 8 sec) 
Heartbeat CPU 0 instructions: 990000000 cycles: 426976820 heartbeat IPC: 2.25447 cumulative IPC: 2.23416 (Simulation time: 0 hr 21 min 20 sec) 
Heartbeat CPU 0 instructions: 1000000003 cycles: 431412745 heartbeat IPC: 2.25432 cumulative IPC: 2.23438 (Simulation time: 0 hr 21 min 33 sec) 
Heartbeat CPU 0 instructions: 1010000000 cycles: 435848129 heartbeat IPC: 2.2546 cumulative IPC: 2.2346 (Simulation time: 0 hr 21 min 45 sec) 
Heartbeat CPU 0 instructions: 1020000001 cycles: 440282682 heartbeat IPC: 2.25502 cumulative IPC: 2.23482 (Simulation time: 0 hr 21 min 58 sec) 
Heartbeat CPU 0 instructions: 1030000003 cycles: 444716383 heartbeat IPC: 2.25545 cumulative IPC: 2.23504 (Simulation time: 0 hr 22 min 10 sec) 
Heartbeat CPU 0 instructions: 1040000002 cycles: 449152138 heartbeat IPC: 2.25441 cumulative IPC: 2.23525 (Simulation time: 0 hr 22 min 23 sec) 
Heartbeat CPU 0 instructions: 1050000000 cycles: 453585446 heartbeat IPC: 2.25565 cumulative IPC: 2.23546 (Simulation time: 0 hr 22 min 35 sec) 
Heartbeat CPU 0 instructions: 1060000003 cycles: 458018857 heartbeat IPC: 2.2556 cumulative IPC: 2.23567 (Simulation time: 0 hr 22 min 48 sec) 
Heartbeat CPU 0 instructions: 1070000000 cycles: 462451313 heartbeat IPC: 2.25608 cumulative IPC: 2.23588 (Simulation time: 0 hr 23 min 0 sec) 
Heartbeat CPU 0 instructions: 1080000001 cycles: 466881656 heartbeat IPC: 2.25716 cumulative IPC: 2.23609 (Simulation time: 0 hr 23 min 12 sec) 
Heartbeat CPU 0 instructions: 1090000003 cycles: 471315749 heartbeat IPC: 2.25525 cumulative IPC: 2.23628 (Simulation time: 0 hr 23 min 25 sec) 
Heartbeat CPU 0 instructions: 1100000000 cycles: 475750243 heartbeat IPC: 2.25505 cumulative IPC: 2.23647 (Simulation time: 0 hr 23 min 37 sec) 
Finished CPU 0 instructions: 1000000001 cycles: 447133196 cumulative IPC: 2.23647 (Simulation time: 0 hr 23 min 37 sec) 

ChampSim completed all CPUs

Region of Interest Statistics

CPU 0 cumulative IPC: 2.23647 instructions: 1000000001 cycles: 447133196
L1D TOTAL     ACCESS:   63168576  HIT:   54268861  MISS:    8899715
L1D LOAD      ACCESS:   63124472  HIT:   54230686  MISS:    8893786
L1D RFO       ACCESS:      44104  HIT:      38175  MISS:       5929
L1D PREFETCH  ACCESS:          0  HIT:          0  MISS:          0
L1D WRITEBACK ACCESS:          0  HIT:          0  MISS:          0
L1D PREFETCH  REQUESTED:          0  ISSUED:          0  USEFUL:          0  USELESS:          0
L1D AVERAGE MISS LATENCY: 21.8655 cycles
L1I TOTAL     ACCESS:  156438917  HIT:  156438917  MISS:          0
L1I LOAD      ACCESS:  156438917  HIT:  156438917  MISS:          0
L1I RFO       ACCESS:          0  HIT:          0  MISS:          0
L1I PREFETCH  ACCESS:          0  HIT:          0  MISS:          0
L1I WRITEBACK ACCESS:          0  HIT:          0  MISS:          0
L1I PREFETCH  REQUESTED:          0  ISSUED:          0  USEFUL:          0  USELESS:          0
L1I AVERAGE MISS LATENCY: -nan cycles
L2C TOTAL     ACCESS:    8914013  HIT:    6979104  MISS:    1934909
L2C LOAD      ACCESS:    8893786  HIT:    6960025  MISS:    1933761
L2C RFO       ACCESS:       5929  HIT:       4781  MISS:       1148
L2C PREFETCH  ACCESS:          0  HIT:          0  MISS:          0
L2C WRITEBACK ACCESS:      14298  HIT:      14298  MISS:          0
L2C PREFETCH  REQUESTED:          0  ISSUED:          0  USEFUL:          0  USELESS:          0
L2C AVERAGE MISS LATENCY: 45.1981 cycles
LLC TOTAL     ACCESS:    1938105  HIT:    1863736  MISS:      74369
LLC LOAD      ACCESS:    1933755  HIT:    1859756  MISS:      73999
LLC RFO       ACCESS:       1148  HIT:        799  MISS:        349
LLC PREFETCH  ACCESS:          0  HIT:          0  MISS:          0
LLC WRITEBACK ACCESS:       3202  HIT:       3181  MISS:         21
LLC PREFETCH  REQUESTED:          0  ISSUED:          0  USEFUL:          0  USELESS:          0
LLC AVERAGE MISS LATENCY: 135.194 cycles
Major fault: 0 Minor fault: 838
==============================
Perceptron RRIP Stats:
   Num Updates:          84178
   Num Primary Trains:   88
   Num Secondary Trains: 45
==============================
primary_perceptron #0: 4 -2 2 0 0 2 0 0 2 2 0 -2 0 2 4 -6 
secondary_perceptron #0: 5 -5 3 -1 1 3 -5 3 -3 -1 1 -3 -3 1 -3 1 3 -9 -9 5 -11 


DRAM Statistics
 CHANNEL 0
 RQ ROW_BUFFER_HIT:      35542  ROW_BUFFER_MISS:      38806
 DBUS_CONGESTED:          8
 WQ ROW_BUFFER_HIT:          0  ROW_BUFFER_MISS:         17  FULL:          0

 AVG_CONGESTED_CYCLE: 5

CPU 0 Branch Prediction Accuracy: 99.6978% MPKI: 0.312803 Average ROB Occupancy at Mispredict: 139.313

Branch types
NOT_BRANCH: 896498208 89.6498%
BRANCH_DIRECT_JUMP: 5582 0.0005582%
BRANCH_INDIRECT: 0 0%
BRANCH_CONDITIONAL: 103496211 10.3496%
BRANCH_DIRECT_CALL: 0 0%
BRANCH_INDIRECT_CALL: 0 0%
BRANCH_RETURN: 0 0%
BRANCH_OTHER: 0 0%

