
*** ChampSim Multicore Out-of-Order Simulator ***

Warmup Instructions: 100000000
Simulation Instructions: 1000000000
Number of CPUs: 1
LLC sets: 2048
LLC ways: 16
Off-chip DRAM Size: 4096 MB Channels: 1 Width: 64-bit Data Rate: 3200 MT/s

CPU 0 runs /scratch/user/kevin.weston/dpc3-traces/641.champsimtrace.xz
CPU 0 Bimodal branch predictor
Per-line RRPV Initialized
PRRIP State Initialized
Assign SAMPLER_SET[0]: 454  LLC: 2048
SAMPLER_SET[0]: 454
Assign SAMPLER_SET[1]: 1662  LLC: 2048
SAMPLER_SET[1]: 1662
Assign SAMPLER_SET[2]: 1921  LLC: 2048
SAMPLER_SET[2]: 1921
Assign SAMPLER_SET[3]: 1131  LLC: 2048
SAMPLER_SET[3]: 1131
Assign SAMPLER_SET[4]: 331  LLC: 2048
SAMPLER_SET[4]: 331
Assign SAMPLER_SET[5]: 1531  LLC: 2048
SAMPLER_SET[5]: 1531
Assign SAMPLER_SET[6]: 482  LLC: 2048
SAMPLER_SET[6]: 482
Assign SAMPLER_SET[7]: 1275  LLC: 2048
SAMPLER_SET[7]: 1275
Assign SAMPLER_SET[8]: 1876  LLC: 2048
SAMPLER_SET[8]: 1876
Assign SAMPLER_SET[9]: 2038  LLC: 2048
SAMPLER_SET[9]: 2038
Assign SAMPLER_SET[10]: 701  LLC: 2048
SAMPLER_SET[10]: 701
Assign SAMPLER_SET[11]: 479  LLC: 2048
SAMPLER_SET[11]: 479
Assign SAMPLER_SET[12]: 892  LLC: 2048
SAMPLER_SET[12]: 892
Assign SAMPLER_SET[13]: 1820  LLC: 2048
SAMPLER_SET[13]: 1820
Assign SAMPLER_SET[14]: 1505  LLC: 2048
SAMPLER_SET[14]: 1505
Assign SAMPLER_SET[15]: 1159  LLC: 2048
SAMPLER_SET[15]: 1159
Assign SAMPLER_SET[16]: 513  LLC: 2048
SAMPLER_SET[16]: 513
Assign SAMPLER_SET[17]: 703  LLC: 2048
SAMPLER_SET[17]: 703
Assign SAMPLER_SET[18]: 561  LLC: 2048
SAMPLER_SET[18]: 561
Assign SAMPLER_SET[19]: 990  LLC: 2048
SAMPLER_SET[19]: 990
Assign SAMPLER_SET[20]: 342  LLC: 2048
SAMPLER_SET[20]: 342
Assign SAMPLER_SET[21]: 882  LLC: 2048
SAMPLER_SET[21]: 882
Assign SAMPLER_SET[22]: 15  LLC: 2048
SAMPLER_SET[22]: 15
Assign SAMPLER_SET[23]: 71  LLC: 2048
SAMPLER_SET[23]: 71
Assign SAMPLER_SET[24]: 1127  LLC: 2048
SAMPLER_SET[24]: 1127
Assign SAMPLER_SET[25]: 1382  LLC: 2048
SAMPLER_SET[25]: 1382
Assign SAMPLER_SET[26]: 647  LLC: 2048
SAMPLER_SET[26]: 647
Assign SAMPLER_SET[27]: 857  LLC: 2048
SAMPLER_SET[27]: 857
Assign SAMPLER_SET[28]: 1450  LLC: 2048
SAMPLER_SET[28]: 1450
Assign SAMPLER_SET[29]: 1160  LLC: 2048
SAMPLER_SET[29]: 1160
Assign SAMPLER_SET[30]: 1852  LLC: 2048
SAMPLER_SET[30]: 1852
Assign SAMPLER_SET[31]: 1881  LLC: 2048
SAMPLER_SET[31]: 1881
Assign SAMPLER_SET[32]: 1770  LLC: 2048
SAMPLER_SET[32]: 1770
Assign SAMPLER_SET[33]: 1622  LLC: 2048
SAMPLER_SET[33]: 1622
Assign SAMPLER_SET[34]: 275  LLC: 2048
SAMPLER_SET[34]: 275
Assign SAMPLER_SET[35]: 635  LLC: 2048
SAMPLER_SET[35]: 635
Assign SAMPLER_SET[36]: 466  LLC: 2048
SAMPLER_SET[36]: 466
Assign SAMPLER_SET[37]: 1413  LLC: 2048
SAMPLER_SET[37]: 1413
Assign SAMPLER_SET[38]: 417  LLC: 2048
SAMPLER_SET[38]: 417
Assign SAMPLER_SET[39]: 472  LLC: 2048
SAMPLER_SET[39]: 472
Assign SAMPLER_SET[40]: 1340  LLC: 2048
SAMPLER_SET[40]: 1340
Assign SAMPLER_SET[41]: 852  LLC: 2048
SAMPLER_SET[41]: 852
Assign SAMPLER_SET[42]: 1365  LLC: 2048
SAMPLER_SET[42]: 1365
Assign SAMPLER_SET[43]: 47  LLC: 2048
SAMPLER_SET[43]: 47
Assign SAMPLER_SET[44]: 823  LLC: 2048
SAMPLER_SET[44]: 823
Assign SAMPLER_SET[45]: 686  LLC: 2048
SAMPLER_SET[45]: 686
Assign SAMPLER_SET[46]: 1637  LLC: 2048
SAMPLER_SET[46]: 1637
Assign SAMPLER_SET[47]: 1115  LLC: 2048
SAMPLER_SET[47]: 1115
Assign SAMPLER_SET[48]: 986  LLC: 2048
SAMPLER_SET[48]: 986
Assign SAMPLER_SET[49]: 258  LLC: 2048
SAMPLER_SET[49]: 258
Assign SAMPLER_SET[50]: 633  LLC: 2048
SAMPLER_SET[50]: 633
Assign SAMPLER_SET[51]: 920  LLC: 2048
SAMPLER_SET[51]: 920
Assign SAMPLER_SET[52]: 204  LLC: 2048
SAMPLER_SET[52]: 204
Assign SAMPLER_SET[53]: 227  LLC: 2048
SAMPLER_SET[53]: 227
Assign SAMPLER_SET[54]: 1818  LLC: 2048
SAMPLER_SET[54]: 1818
Assign SAMPLER_SET[55]: 886  LLC: 2048
SAMPLER_SET[55]: 886
Assign SAMPLER_SET[56]: 1422  LLC: 2048
SAMPLER_SET[56]: 1422
Assign SAMPLER_SET[57]: 607  LLC: 2048
SAMPLER_SET[57]: 607
Assign SAMPLER_SET[58]: 217  LLC: 2048
SAMPLER_SET[58]: 217
Assign SAMPLER_SET[59]: 1945  LLC: 2048
SAMPLER_SET[59]: 1945
Assign SAMPLER_SET[60]: 143  LLC: 2048
SAMPLER_SET[60]: 143
Assign SAMPLER_SET[61]: 1311  LLC: 2048
SAMPLER_SET[61]: 1311
Assign SAMPLER_SET[62]: 319  LLC: 2048
SAMPLER_SET[62]: 319
Assign SAMPLER_SET[63]: 1846  LLC: 2048
SAMPLER_SET[63]: 1846
Heartbeat CPU 0 instructions: 10000003 cycles: 4649867 heartbeat IPC: 2.1506 cumulative IPC: 2.1506 (Simulation time: 0 hr 0 min 25 sec) 
Heartbeat CPU 0 instructions: 20000003 cycles: 9296116 heartbeat IPC: 2.15227 cumulative IPC: 2.15144 (Simulation time: 0 hr 0 min 49 sec) 
Heartbeat CPU 0 instructions: 30000001 cycles: 13960935 heartbeat IPC: 2.14371 cumulative IPC: 2.14885 (Simulation time: 0 hr 1 min 14 sec) 
Heartbeat CPU 0 instructions: 40000002 cycles: 18612376 heartbeat IPC: 2.14987 cumulative IPC: 2.14911 (Simulation time: 0 hr 1 min 38 sec) 
Heartbeat CPU 0 instructions: 50000001 cycles: 23258721 heartbeat IPC: 2.15223 cumulative IPC: 2.14973 (Simulation time: 0 hr 2 min 3 sec) 
Heartbeat CPU 0 instructions: 60000000 cycles: 27917070 heartbeat IPC: 2.14668 cumulative IPC: 2.14922 (Simulation time: 0 hr 2 min 27 sec) 
Heartbeat CPU 0 instructions: 70000001 cycles: 32574844 heartbeat IPC: 2.14695 cumulative IPC: 2.1489 (Simulation time: 0 hr 2 min 52 sec) 
Heartbeat CPU 0 instructions: 80000001 cycles: 37238971 heartbeat IPC: 2.14402 cumulative IPC: 2.14829 (Simulation time: 0 hr 3 min 16 sec) 
Heartbeat CPU 0 instructions: 90000003 cycles: 41905415 heartbeat IPC: 2.14296 cumulative IPC: 2.14769 (Simulation time: 0 hr 3 min 41 sec) 
Heartbeat CPU 0 instructions: 100000000 cycles: 46546081 heartbeat IPC: 2.15486 cumulative IPC: 2.14841 (Simulation time: 0 hr 4 min 5 sec) 

Warmup complete CPU 0 instructions: 100000004 cycles: 46546082 (Simulation time: 0 hr 4 min 5 sec) 

Heartbeat CPU 0 instructions: 110000000 cycles: 58833636 heartbeat IPC: 0.813832 cumulative IPC: 0.813831 (Simulation time: 0 hr 4 min 23 sec) 
Heartbeat CPU 0 instructions: 120000001 cycles: 76067021 heartbeat IPC: 0.580269 cumulative IPC: 0.677485 (Simulation time: 0 hr 4 min 44 sec) 
Heartbeat CPU 0 instructions: 130000000 cycles: 88513866 heartbeat IPC: 0.803416 cumulative IPC: 0.714834 (Simulation time: 0 hr 5 min 1 sec) 
Heartbeat CPU 0 instructions: 140000000 cycles: 100873159 heartbeat IPC: 0.809108 cumulative IPC: 0.736281 (Simulation time: 0 hr 5 min 19 sec) 
Heartbeat CPU 0 instructions: 150000001 cycles: 113181818 heartbeat IPC: 0.812436 cumulative IPC: 0.750348 (Simulation time: 0 hr 5 min 36 sec) 
Heartbeat CPU 0 instructions: 160000002 cycles: 125557622 heartbeat IPC: 0.808028 cumulative IPC: 0.759383 (Simulation time: 0 hr 5 min 54 sec) 
Heartbeat CPU 0 instructions: 170000001 cycles: 137999845 heartbeat IPC: 0.803715 cumulative IPC: 0.765414 (Simulation time: 0 hr 6 min 11 sec) 
Heartbeat CPU 0 instructions: 180000000 cycles: 150388212 heartbeat IPC: 0.807209 cumulative IPC: 0.7704 (Simulation time: 0 hr 6 min 29 sec) 
Heartbeat CPU 0 instructions: 190000002 cycles: 162773033 heartbeat IPC: 0.80744 cumulative IPC: 0.774347 (Simulation time: 0 hr 6 min 46 sec) 
Heartbeat CPU 0 instructions: 200000000 cycles: 175141534 heartbeat IPC: 0.808505 cumulative IPC: 0.777632 (Simulation time: 0 hr 7 min 4 sec) 
Heartbeat CPU 0 instructions: 210000001 cycles: 187423443 heartbeat IPC: 0.814206 cumulative IPC: 0.780821 (Simulation time: 0 hr 7 min 22 sec) 
Heartbeat CPU 0 instructions: 220000000 cycles: 199793098 heartbeat IPC: 0.80843 cumulative IPC: 0.783049 (Simulation time: 0 hr 7 min 39 sec) 
Heartbeat CPU 0 instructions: 230000000 cycles: 212194463 heartbeat IPC: 0.806363 cumulative IPC: 0.784795 (Simulation time: 0 hr 7 min 57 sec) 
Heartbeat CPU 0 instructions: 240000001 cycles: 224578267 heartbeat IPC: 0.807506 cumulative IPC: 0.786375 (Simulation time: 0 hr 8 min 14 sec) 
Heartbeat CPU 0 instructions: 250000002 cycles: 236923598 heartbeat IPC: 0.810023 cumulative IPC: 0.787908 (Simulation time: 0 hr 8 min 32 sec) 
Heartbeat CPU 0 instructions: 260000000 cycles: 249239318 heartbeat IPC: 0.81197 cumulative IPC: 0.78937 (Simulation time: 0 hr 8 min 49 sec) 
Heartbeat CPU 0 instructions: 270000000 cycles: 261582336 heartbeat IPC: 0.810175 cumulative IPC: 0.790564 (Simulation time: 0 hr 9 min 7 sec) 
Heartbeat CPU 0 instructions: 280000000 cycles: 273924510 heartbeat IPC: 0.81023 cumulative IPC: 0.791632 (Simulation time: 0 hr 9 min 24 sec) 
Heartbeat CPU 0 instructions: 290000000 cycles: 286175392 heartbeat IPC: 0.816268 cumulative IPC: 0.792891 (Simulation time: 0 hr 9 min 41 sec) 
Heartbeat CPU 0 instructions: 300000001 cycles: 298488794 heartbeat IPC: 0.812123 cumulative IPC: 0.793831 (Simulation time: 0 hr 9 min 59 sec) 
Heartbeat CPU 0 instructions: 310000000 cycles: 310753290 heartbeat IPC: 0.815362 cumulative IPC: 0.794831 (Simulation time: 0 hr 10 min 16 sec) 
Heartbeat CPU 0 instructions: 320000002 cycles: 323061660 heartbeat IPC: 0.812455 cumulative IPC: 0.795615 (Simulation time: 0 hr 10 min 33 sec) 
Heartbeat CPU 0 instructions: 330000000 cycles: 335312784 heartbeat IPC: 0.816251 cumulative IPC: 0.796491 (Simulation time: 0 hr 10 min 51 sec) 
Heartbeat CPU 0 instructions: 340000001 cycles: 347607599 heartbeat IPC: 0.813351 cumulative IPC: 0.797179 (Simulation time: 0 hr 11 min 8 sec) 
Heartbeat CPU 0 instructions: 350000001 cycles: 359956682 heartbeat IPC: 0.809777 cumulative IPC: 0.797676 (Simulation time: 0 hr 11 min 25 sec) 
Heartbeat CPU 0 instructions: 360000003 cycles: 372271978 heartbeat IPC: 0.811998 cumulative IPC: 0.798217 (Simulation time: 0 hr 11 min 42 sec) 
Heartbeat CPU 0 instructions: 370000002 cycles: 384544364 heartbeat IPC: 0.814837 cumulative IPC: 0.798821 (Simulation time: 0 hr 12 min 0 sec) 
Heartbeat CPU 0 instructions: 380000001 cycles: 396912635 heartbeat IPC: 0.80852 cumulative IPC: 0.799163 (Simulation time: 0 hr 12 min 17 sec) 
Heartbeat CPU 0 instructions: 390000001 cycles: 409290986 heartbeat IPC: 0.807862 cumulative IPC: 0.79946 (Simulation time: 0 hr 12 min 35 sec) 
Heartbeat CPU 0 instructions: 400000000 cycles: 421611004 heartbeat IPC: 0.811687 cumulative IPC: 0.799861 (Simulation time: 0 hr 12 min 52 sec) 
Heartbeat CPU 0 instructions: 410000001 cycles: 433883280 heartbeat IPC: 0.814845 cumulative IPC: 0.800336 (Simulation time: 0 hr 13 min 10 sec) 
Heartbeat CPU 0 instructions: 420000000 cycles: 446248042 heartbeat IPC: 0.80875 cumulative IPC: 0.800597 (Simulation time: 0 hr 13 min 27 sec) 
Heartbeat CPU 0 instructions: 430000001 cycles: 458664041 heartbeat IPC: 0.805413 cumulative IPC: 0.800742 (Simulation time: 0 hr 13 min 45 sec) 
Heartbeat CPU 0 instructions: 440000000 cycles: 470983867 heartbeat IPC: 0.8117 cumulative IPC: 0.80106 (Simulation time: 0 hr 14 min 2 sec) 
Heartbeat CPU 0 instructions: 450000002 cycles: 483353162 heartbeat IPC: 0.808454 cumulative IPC: 0.801269 (Simulation time: 0 hr 14 min 20 sec) 
Heartbeat CPU 0 instructions: 460000000 cycles: 495688105 heartbeat IPC: 0.810705 cumulative IPC: 0.801528 (Simulation time: 0 hr 14 min 37 sec) 
Heartbeat CPU 0 instructions: 470000000 cycles: 508068271 heartbeat IPC: 0.807744 cumulative IPC: 0.801695 (Simulation time: 0 hr 14 min 55 sec) 
Heartbeat CPU 0 instructions: 480000001 cycles: 520450056 heartbeat IPC: 0.807638 cumulative IPC: 0.80185 (Simulation time: 0 hr 15 min 12 sec) 
Heartbeat CPU 0 instructions: 490000000 cycles: 532623693 heartbeat IPC: 0.821447 cumulative IPC: 0.802341 (Simulation time: 0 hr 15 min 29 sec) 
Heartbeat CPU 0 instructions: 500000002 cycles: 544882437 heartbeat IPC: 0.815744 cumulative IPC: 0.802671 (Simulation time: 0 hr 15 min 46 sec) 
Heartbeat CPU 0 instructions: 510000003 cycles: 557214907 heartbeat IPC: 0.810868 cumulative IPC: 0.802869 (Simulation time: 0 hr 16 min 4 sec) 
Heartbeat CPU 0 instructions: 520000001 cycles: 569638038 heartbeat IPC: 0.80495 cumulative IPC: 0.802918 (Simulation time: 0 hr 16 min 21 sec) 
Heartbeat CPU 0 instructions: 530000002 cycles: 582006835 heartbeat IPC: 0.808486 cumulative IPC: 0.803047 (Simulation time: 0 hr 16 min 38 sec) 
Heartbeat CPU 0 instructions: 540000001 cycles: 594339300 heartbeat IPC: 0.810868 cumulative IPC: 0.803223 (Simulation time: 0 hr 16 min 55 sec) 
Heartbeat CPU 0 instructions: 550000000 cycles: 606662678 heartbeat IPC: 0.811466 cumulative IPC: 0.803404 (Simulation time: 0 hr 17 min 11 sec) 
Heartbeat CPU 0 instructions: 560000001 cycles: 619016540 heartbeat IPC: 0.809464 cumulative IPC: 0.803535 (Simulation time: 0 hr 17 min 28 sec) 
Heartbeat CPU 0 instructions: 570000001 cycles: 631363855 heartbeat IPC: 0.809893 cumulative IPC: 0.803669 (Simulation time: 0 hr 17 min 45 sec) 
Heartbeat CPU 0 instructions: 580000000 cycles: 643641261 heartbeat IPC: 0.814504 cumulative IPC: 0.803892 (Simulation time: 0 hr 18 min 2 sec) 
Heartbeat CPU 0 instructions: 590000000 cycles: 655967812 heartbeat IPC: 0.811257 cumulative IPC: 0.804041 (Simulation time: 0 hr 18 min 19 sec) 
Heartbeat CPU 0 instructions: 600000001 cycles: 668272033 heartbeat IPC: 0.812729 cumulative IPC: 0.804213 (Simulation time: 0 hr 18 min 36 sec) 
Heartbeat CPU 0 instructions: 610000002 cycles: 680613148 heartbeat IPC: 0.8103 cumulative IPC: 0.804331 (Simulation time: 0 hr 18 min 53 sec) 
Heartbeat CPU 0 instructions: 620000002 cycles: 692971976 heartbeat IPC: 0.809138 cumulative IPC: 0.804423 (Simulation time: 0 hr 19 min 10 sec) 
Heartbeat CPU 0 instructions: 630000001 cycles: 705331570 heartbeat IPC: 0.809088 cumulative IPC: 0.804511 (Simulation time: 0 hr 19 min 26 sec) 
Heartbeat CPU 0 instructions: 640000002 cycles: 717724892 heartbeat IPC: 0.806886 cumulative IPC: 0.804555 (Simulation time: 0 hr 19 min 43 sec) 
Heartbeat CPU 0 instructions: 650000001 cycles: 730075305 heartbeat IPC: 0.809689 cumulative IPC: 0.804647 (Simulation time: 0 hr 20 min 0 sec) 
Heartbeat CPU 0 instructions: 660000000 cycles: 742390887 heartbeat IPC: 0.811979 cumulative IPC: 0.804777 (Simulation time: 0 hr 20 min 17 sec) 
Heartbeat CPU 0 instructions: 670000000 cycles: 754736576 heartbeat IPC: 0.809999 cumulative IPC: 0.804868 (Simulation time: 0 hr 20 min 34 sec) 
Heartbeat CPU 0 instructions: 680000003 cycles: 767105120 heartbeat IPC: 0.808503 cumulative IPC: 0.804931 (Simulation time: 0 hr 20 min 50 sec) 
Heartbeat CPU 0 instructions: 690000000 cycles: 779441701 heartbeat IPC: 0.810597 cumulative IPC: 0.805026 (Simulation time: 0 hr 21 min 7 sec) 
Heartbeat CPU 0 instructions: 700000002 cycles: 791793842 heartbeat IPC: 0.809576 cumulative IPC: 0.805101 (Simulation time: 0 hr 21 min 24 sec) 
Heartbeat CPU 0 instructions: 710000002 cycles: 804076971 heartbeat IPC: 0.814125 cumulative IPC: 0.805248 (Simulation time: 0 hr 21 min 41 sec) 
Heartbeat CPU 0 instructions: 720000001 cycles: 816461771 heartbeat IPC: 0.807441 cumulative IPC: 0.805283 (Simulation time: 0 hr 21 min 57 sec) 
Heartbeat CPU 0 instructions: 730000000 cycles: 828828955 heartbeat IPC: 0.808591 cumulative IPC: 0.805335 (Simulation time: 0 hr 22 min 14 sec) 
Heartbeat CPU 0 instructions: 740000002 cycles: 841176070 heartbeat IPC: 0.809906 cumulative IPC: 0.805406 (Simulation time: 0 hr 22 min 31 sec) 
Heartbeat CPU 0 instructions: 750000001 cycles: 853550394 heartbeat IPC: 0.808125 cumulative IPC: 0.805448 (Simulation time: 0 hr 22 min 48 sec) 
Heartbeat CPU 0 instructions: 760000002 cycles: 865899309 heartbeat IPC: 0.809788 cumulative IPC: 0.805513 (Simulation time: 0 hr 23 min 4 sec) 
Heartbeat CPU 0 instructions: 770000000 cycles: 878210797 heartbeat IPC: 0.812249 cumulative IPC: 0.805613 (Simulation time: 0 hr 23 min 21 sec) 
Heartbeat CPU 0 instructions: 780000000 cycles: 890578562 heartbeat IPC: 0.808554 cumulative IPC: 0.805656 (Simulation time: 0 hr 23 min 38 sec) 
Heartbeat CPU 0 instructions: 790000000 cycles: 902879399 heartbeat IPC: 0.812953 cumulative IPC: 0.805761 (Simulation time: 0 hr 23 min 55 sec) 
Heartbeat CPU 0 instructions: 800000001 cycles: 915207599 heartbeat IPC: 0.811149 cumulative IPC: 0.805837 (Simulation time: 0 hr 24 min 11 sec) 
Heartbeat CPU 0 instructions: 810000001 cycles: 927518817 heartbeat IPC: 0.812267 cumulative IPC: 0.805927 (Simulation time: 0 hr 24 min 28 sec) 
Heartbeat CPU 0 instructions: 820000000 cycles: 939865330 heartbeat IPC: 0.809945 cumulative IPC: 0.805983 (Simulation time: 0 hr 24 min 45 sec) 
Heartbeat CPU 0 instructions: 830000000 cycles: 952162206 heartbeat IPC: 0.813215 cumulative IPC: 0.806081 (Simulation time: 0 hr 25 min 1 sec) 
Heartbeat CPU 0 instructions: 840000001 cycles: 964424764 heartbeat IPC: 0.815491 cumulative IPC: 0.806207 (Simulation time: 0 hr 25 min 18 sec) 
Heartbeat CPU 0 instructions: 850000000 cycles: 976743205 heartbeat IPC: 0.811791 cumulative IPC: 0.806281 (Simulation time: 0 hr 25 min 35 sec) 
Heartbeat CPU 0 instructions: 860000000 cycles: 989043921 heartbeat IPC: 0.812961 cumulative IPC: 0.806368 (Simulation time: 0 hr 25 min 51 sec) 
Heartbeat CPU 0 instructions: 870000002 cycles: 1001376449 heartbeat IPC: 0.810864 cumulative IPC: 0.806426 (Simulation time: 0 hr 26 min 8 sec) 
Heartbeat CPU 0 instructions: 880000000 cycles: 1013717568 heartbeat IPC: 0.810299 cumulative IPC: 0.806475 (Simulation time: 0 hr 26 min 25 sec) 
Heartbeat CPU 0 instructions: 890000002 cycles: 1025950701 heartbeat IPC: 0.817452 cumulative IPC: 0.806612 (Simulation time: 0 hr 26 min 42 sec) 
Heartbeat CPU 0 instructions: 900000002 cycles: 1038152113 heartbeat IPC: 0.819577 cumulative IPC: 0.806772 (Simulation time: 0 hr 26 min 58 sec) 
Heartbeat CPU 0 instructions: 910000001 cycles: 1050388310 heartbeat IPC: 0.817247 cumulative IPC: 0.8069 (Simulation time: 0 hr 27 min 15 sec) 
Heartbeat CPU 0 instructions: 920000001 cycles: 1062702468 heartbeat IPC: 0.812073 cumulative IPC: 0.806962 (Simulation time: 0 hr 27 min 32 sec) 
Heartbeat CPU 0 instructions: 930000002 cycles: 1075025422 heartbeat IPC: 0.811494 cumulative IPC: 0.807017 (Simulation time: 0 hr 27 min 48 sec) 
Heartbeat CPU 0 instructions: 940000000 cycles: 1087254765 heartbeat IPC: 0.817705 cumulative IPC: 0.807142 (Simulation time: 0 hr 28 min 5 sec) 
Heartbeat CPU 0 instructions: 950000000 cycles: 1099498293 heartbeat IPC: 0.816758 cumulative IPC: 0.807254 (Simulation time: 0 hr 28 min 22 sec) 
Heartbeat CPU 0 instructions: 960000001 cycles: 1116370236 heartbeat IPC: 0.5927 cumulative IPC: 0.80387 (Simulation time: 0 hr 28 min 42 sec) 
Heartbeat CPU 0 instructions: 970000000 cycles: 1128613433 heartbeat IPC: 0.81678 cumulative IPC: 0.804016 (Simulation time: 0 hr 28 min 58 sec) 
Heartbeat CPU 0 instructions: 980000002 cycles: 1140826803 heartbeat IPC: 0.818775 cumulative IPC: 0.804181 (Simulation time: 0 hr 29 min 15 sec) 
Heartbeat CPU 0 instructions: 990000000 cycles: 1153056621 heartbeat IPC: 0.817674 cumulative IPC: 0.80433 (Simulation time: 0 hr 29 min 32 sec) 
Heartbeat CPU 0 instructions: 1000000000 cycles: 1165324852 heartbeat IPC: 0.815113 cumulative IPC: 0.804449 (Simulation time: 0 hr 29 min 48 sec) 
Heartbeat CPU 0 instructions: 1010000002 cycles: 1177548469 heartbeat IPC: 0.818089 cumulative IPC: 0.804596 (Simulation time: 0 hr 30 min 5 sec) 
Heartbeat CPU 0 instructions: 1020000001 cycles: 1189766577 heartbeat IPC: 0.818457 cumulative IPC: 0.804744 (Simulation time: 0 hr 30 min 22 sec) 
Heartbeat CPU 0 instructions: 1030000000 cycles: 1201986857 heartbeat IPC: 0.818312 cumulative IPC: 0.804888 (Simulation time: 0 hr 30 min 38 sec) 
Heartbeat CPU 0 instructions: 1040000003 cycles: 1214212794 heartbeat IPC: 0.817933 cumulative IPC: 0.805024 (Simulation time: 0 hr 30 min 55 sec) 
Heartbeat CPU 0 instructions: 1050000003 cycles: 1226512003 heartbeat IPC: 0.81306 cumulative IPC: 0.805108 (Simulation time: 0 hr 31 min 12 sec) 
Heartbeat CPU 0 instructions: 1060000001 cycles: 1238732027 heartbeat IPC: 0.818329 cumulative IPC: 0.805243 (Simulation time: 0 hr 31 min 28 sec) 
Heartbeat CPU 0 instructions: 1070000000 cycles: 1250959798 heartbeat IPC: 0.81781 cumulative IPC: 0.805371 (Simulation time: 0 hr 31 min 45 sec) 
Heartbeat CPU 0 instructions: 1080000001 cycles: 1263236851 heartbeat IPC: 0.814528 cumulative IPC: 0.805463 (Simulation time: 0 hr 32 min 1 sec) 
Heartbeat CPU 0 instructions: 1090000000 cycles: 1275520016 heartbeat IPC: 0.814122 cumulative IPC: 0.80555 (Simulation time: 0 hr 32 min 18 sec) 
Heartbeat CPU 0 instructions: 1100000000 cycles: 1287713082 heartbeat IPC: 0.820138 cumulative IPC: 0.805693 (Simulation time: 0 hr 32 min 35 sec) 
Finished CPU 0 instructions: 1000000000 cycles: 1241167009 cumulative IPC: 0.805693 (Simulation time: 0 hr 32 min 35 sec) 

ChampSim completed all CPUs

Region of Interest Statistics

CPU 0 cumulative IPC: 0.805693 instructions: 1000000000 cycles: 1241167009
L1D TOTAL     ACCESS:  316204428  HIT:  313248530  MISS:    2955898
L1D LOAD      ACCESS:  201703868  HIT:  199101600  MISS:    2602268
L1D RFO       ACCESS:  114500560  HIT:  114146930  MISS:     353630
L1D PREFETCH  ACCESS:          0  HIT:          0  MISS:          0
L1D WRITEBACK ACCESS:          0  HIT:          0  MISS:          0
L1D PREFETCH  REQUESTED:          0  ISSUED:          0  USEFUL:          0  USELESS:          0
L1D AVERAGE MISS LATENCY: 19.8136 cycles
L1I TOTAL     ACCESS:  183737903  HIT:  183681285  MISS:      56618
L1I LOAD      ACCESS:  183737903  HIT:  183681285  MISS:      56618
L1I RFO       ACCESS:          0  HIT:          0  MISS:          0
L1I PREFETCH  ACCESS:          0  HIT:          0  MISS:          0
L1I WRITEBACK ACCESS:          0  HIT:          0  MISS:          0
L1I PREFETCH  REQUESTED:          0  ISSUED:          0  USEFUL:          0  USELESS:          0
L1I AVERAGE MISS LATENCY: 20.6111 cycles
L2C TOTAL     ACCESS:    3594694  HIT:    3386286  MISS:     208408
L2C LOAD      ACCESS:    2658727  HIT:    2520228  MISS:     138499
L2C RFO       ACCESS:     353626  HIT:     283877  MISS:      69749
L2C PREFETCH  ACCESS:          0  HIT:          0  MISS:          0
L2C WRITEBACK ACCESS:     582341  HIT:     582181  MISS:        160
L2C PREFETCH  REQUESTED:          0  ISSUED:          0  USEFUL:          0  USELESS:          0
L2C AVERAGE MISS LATENCY: 112.771 cycles
LLC TOTAL     ACCESS:     286894  HIT:     163718  MISS:     123176
LLC LOAD      ACCESS:     138499  HIT:      94757  MISS:      43742
LLC RFO       ACCESS:      69749  HIT:      17048  MISS:      52701
LLC PREFETCH  ACCESS:          0  HIT:          0  MISS:          0
LLC WRITEBACK ACCESS:      78646  HIT:      51913  MISS:      26733
LLC PREFETCH  REQUESTED:          0  ISSUED:          0  USEFUL:          0  USELESS:          0
LLC AVERAGE MISS LATENCY: 122.869 cycles
Major fault: 0 Minor fault: 1740
==============================
Perceptron RRIP Stats:
   Num Updates:          6461
   Num Primary Trains:   420
   Num Secondary Trains: 436
==============================
primary_perceptron #0: 0 4 0 0 -2 0 -2 0 -4 -2 -2 -4 4 2 2 0 
secondary_perceptron #0: -2 6 -4 0 -6 0 -2 -4 -4 -2 -2 -4 4 0 2 0 0 -2 0 0 -2 


DRAM Statistics
 CHANNEL 0
 RQ ROW_BUFFER_HIT:      39440  ROW_BUFFER_MISS:      56991
 DBUS_CONGESTED:      32223
 WQ ROW_BUFFER_HIT:      16875  ROW_BUFFER_MISS:      21498  FULL:       1793

 AVG_CONGESTED_CYCLE: 6

CPU 0 Branch Prediction Accuracy: 87.4973% MPKI: 20.452 Average ROB Occupancy at Mispredict: 22.6991

Branch types
NOT_BRANCH: 836419616 83.642%
BRANCH_DIRECT_JUMP: 5445299 0.54453%
BRANCH_INDIRECT: 6861 0.0006861%
BRANCH_CONDITIONAL: 99292811 9.92928%
BRANCH_DIRECT_CALL: 29417492 2.94175%
BRANCH_INDIRECT_CALL: 78 7.8e-06%
BRANCH_RETURN: 29417568 2.94176%
BRANCH_OTHER: 0 0%

