
*** ChampSim Multicore Out-of-Order Simulator ***

Warmup Instructions: 100000000
Simulation Instructions: 1000000000
Number of CPUs: 1
LLC sets: 2048
LLC ways: 16
Off-chip DRAM Size: 4096 MB Channels: 1 Width: 64-bit Data Rate: 3200 MT/s

CPU 0 runs /scratch/user/kevin.weston/dpc3-traces/641.champsimtrace.xz
CPU 0 Bimodal branch predictor
Per-line RRPV Initialized
PRRIP State Initialized
Assign SAMPLER_SET[0]: 454  LLC: 2048
SAMPLER_SET[0]: 454
Assign SAMPLER_SET[1]: 1662  LLC: 2048
SAMPLER_SET[1]: 1662
Assign SAMPLER_SET[2]: 1921  LLC: 2048
SAMPLER_SET[2]: 1921
Assign SAMPLER_SET[3]: 1131  LLC: 2048
SAMPLER_SET[3]: 1131
Assign SAMPLER_SET[4]: 331  LLC: 2048
SAMPLER_SET[4]: 331
Assign SAMPLER_SET[5]: 1531  LLC: 2048
SAMPLER_SET[5]: 1531
Assign SAMPLER_SET[6]: 482  LLC: 2048
SAMPLER_SET[6]: 482
Assign SAMPLER_SET[7]: 1275  LLC: 2048
SAMPLER_SET[7]: 1275
Assign SAMPLER_SET[8]: 1876  LLC: 2048
SAMPLER_SET[8]: 1876
Assign SAMPLER_SET[9]: 2038  LLC: 2048
SAMPLER_SET[9]: 2038
Assign SAMPLER_SET[10]: 701  LLC: 2048
SAMPLER_SET[10]: 701
Assign SAMPLER_SET[11]: 479  LLC: 2048
SAMPLER_SET[11]: 479
Assign SAMPLER_SET[12]: 892  LLC: 2048
SAMPLER_SET[12]: 892
Assign SAMPLER_SET[13]: 1820  LLC: 2048
SAMPLER_SET[13]: 1820
Assign SAMPLER_SET[14]: 1505  LLC: 2048
SAMPLER_SET[14]: 1505
Assign SAMPLER_SET[15]: 1159  LLC: 2048
SAMPLER_SET[15]: 1159
Assign SAMPLER_SET[16]: 513  LLC: 2048
SAMPLER_SET[16]: 513
Assign SAMPLER_SET[17]: 703  LLC: 2048
SAMPLER_SET[17]: 703
Assign SAMPLER_SET[18]: 561  LLC: 2048
SAMPLER_SET[18]: 561
Assign SAMPLER_SET[19]: 990  LLC: 2048
SAMPLER_SET[19]: 990
Assign SAMPLER_SET[20]: 342  LLC: 2048
SAMPLER_SET[20]: 342
Assign SAMPLER_SET[21]: 882  LLC: 2048
SAMPLER_SET[21]: 882
Assign SAMPLER_SET[22]: 15  LLC: 2048
SAMPLER_SET[22]: 15
Assign SAMPLER_SET[23]: 71  LLC: 2048
SAMPLER_SET[23]: 71
Assign SAMPLER_SET[24]: 1127  LLC: 2048
SAMPLER_SET[24]: 1127
Assign SAMPLER_SET[25]: 1382  LLC: 2048
SAMPLER_SET[25]: 1382
Assign SAMPLER_SET[26]: 647  LLC: 2048
SAMPLER_SET[26]: 647
Assign SAMPLER_SET[27]: 857  LLC: 2048
SAMPLER_SET[27]: 857
Assign SAMPLER_SET[28]: 1450  LLC: 2048
SAMPLER_SET[28]: 1450
Assign SAMPLER_SET[29]: 1160  LLC: 2048
SAMPLER_SET[29]: 1160
Assign SAMPLER_SET[30]: 1852  LLC: 2048
SAMPLER_SET[30]: 1852
Assign SAMPLER_SET[31]: 1881  LLC: 2048
SAMPLER_SET[31]: 1881
Assign SAMPLER_SET[32]: 1770  LLC: 2048
SAMPLER_SET[32]: 1770
Assign SAMPLER_SET[33]: 1622  LLC: 2048
SAMPLER_SET[33]: 1622
Assign SAMPLER_SET[34]: 275  LLC: 2048
SAMPLER_SET[34]: 275
Assign SAMPLER_SET[35]: 635  LLC: 2048
SAMPLER_SET[35]: 635
Assign SAMPLER_SET[36]: 466  LLC: 2048
SAMPLER_SET[36]: 466
Assign SAMPLER_SET[37]: 1413  LLC: 2048
SAMPLER_SET[37]: 1413
Assign SAMPLER_SET[38]: 417  LLC: 2048
SAMPLER_SET[38]: 417
Assign SAMPLER_SET[39]: 472  LLC: 2048
SAMPLER_SET[39]: 472
Assign SAMPLER_SET[40]: 1340  LLC: 2048
SAMPLER_SET[40]: 1340
Assign SAMPLER_SET[41]: 852  LLC: 2048
SAMPLER_SET[41]: 852
Assign SAMPLER_SET[42]: 1365  LLC: 2048
SAMPLER_SET[42]: 1365
Assign SAMPLER_SET[43]: 47  LLC: 2048
SAMPLER_SET[43]: 47
Assign SAMPLER_SET[44]: 823  LLC: 2048
SAMPLER_SET[44]: 823
Assign SAMPLER_SET[45]: 686  LLC: 2048
SAMPLER_SET[45]: 686
Assign SAMPLER_SET[46]: 1637  LLC: 2048
SAMPLER_SET[46]: 1637
Assign SAMPLER_SET[47]: 1115  LLC: 2048
SAMPLER_SET[47]: 1115
Assign SAMPLER_SET[48]: 986  LLC: 2048
SAMPLER_SET[48]: 986
Assign SAMPLER_SET[49]: 258  LLC: 2048
SAMPLER_SET[49]: 258
Assign SAMPLER_SET[50]: 633  LLC: 2048
SAMPLER_SET[50]: 633
Assign SAMPLER_SET[51]: 920  LLC: 2048
SAMPLER_SET[51]: 920
Assign SAMPLER_SET[52]: 204  LLC: 2048
SAMPLER_SET[52]: 204
Assign SAMPLER_SET[53]: 227  LLC: 2048
SAMPLER_SET[53]: 227
Assign SAMPLER_SET[54]: 1818  LLC: 2048
SAMPLER_SET[54]: 1818
Assign SAMPLER_SET[55]: 886  LLC: 2048
SAMPLER_SET[55]: 886
Assign SAMPLER_SET[56]: 1422  LLC: 2048
SAMPLER_SET[56]: 1422
Assign SAMPLER_SET[57]: 607  LLC: 2048
SAMPLER_SET[57]: 607
Assign SAMPLER_SET[58]: 217  LLC: 2048
SAMPLER_SET[58]: 217
Assign SAMPLER_SET[59]: 1945  LLC: 2048
SAMPLER_SET[59]: 1945
Assign SAMPLER_SET[60]: 143  LLC: 2048
SAMPLER_SET[60]: 143
Assign SAMPLER_SET[61]: 1311  LLC: 2048
SAMPLER_SET[61]: 1311
Assign SAMPLER_SET[62]: 319  LLC: 2048
SAMPLER_SET[62]: 319
Assign SAMPLER_SET[63]: 1846  LLC: 2048
SAMPLER_SET[63]: 1846
Assign SAMPLER_SET[64]: 238  LLC: 2048
SAMPLER_SET[64]: 238
Assign SAMPLER_SET[65]: 67  LLC: 2048
SAMPLER_SET[65]: 67
Assign SAMPLER_SET[66]: 1912  LLC: 2048
SAMPLER_SET[66]: 1912
Assign SAMPLER_SET[67]: 1613  LLC: 2048
SAMPLER_SET[67]: 1613
Assign SAMPLER_SET[68]: 1293  LLC: 2048
SAMPLER_SET[68]: 1293
Assign SAMPLER_SET[69]: 1018  LLC: 2048
SAMPLER_SET[69]: 1018
Assign SAMPLER_SET[70]: 1982  LLC: 2048
SAMPLER_SET[70]: 1982
Assign SAMPLER_SET[71]: 1702  LLC: 2048
SAMPLER_SET[71]: 1702
Assign SAMPLER_SET[72]: 1498  LLC: 2048
SAMPLER_SET[72]: 1498
Assign SAMPLER_SET[73]: 228  LLC: 2048
SAMPLER_SET[73]: 228
Assign SAMPLER_SET[74]: 1414  LLC: 2048
SAMPLER_SET[74]: 1414
Assign SAMPLER_SET[75]: 1166  LLC: 2048
SAMPLER_SET[75]: 1166
Assign SAMPLER_SET[76]: 732  LLC: 2048
SAMPLER_SET[76]: 732
Assign SAMPLER_SET[77]: 297  LLC: 2048
SAMPLER_SET[77]: 297
Assign SAMPLER_SET[78]: 1133  LLC: 2048
SAMPLER_SET[78]: 1133
Assign SAMPLER_SET[79]: 846  LLC: 2048
SAMPLER_SET[79]: 846
Assign SAMPLER_SET[80]: 767  LLC: 2048
SAMPLER_SET[80]: 767
Assign SAMPLER_SET[81]: 1878  LLC: 2048
SAMPLER_SET[81]: 1878
Assign SAMPLER_SET[82]: 993  LLC: 2048
SAMPLER_SET[82]: 993
Assign SAMPLER_SET[83]: 1392  LLC: 2048
SAMPLER_SET[83]: 1392
Assign SAMPLER_SET[84]: 1568  LLC: 2048
SAMPLER_SET[84]: 1568
Assign SAMPLER_SET[85]: 1787  LLC: 2048
SAMPLER_SET[85]: 1787
Assign SAMPLER_SET[86]: 399  LLC: 2048
SAMPLER_SET[86]: 399
Assign SAMPLER_SET[87]: 1201  LLC: 2048
SAMPLER_SET[87]: 1201
Assign SAMPLER_SET[88]: 856  LLC: 2048
SAMPLER_SET[88]: 856
Assign SAMPLER_SET[89]: 773  LLC: 2048
SAMPLER_SET[89]: 773
Assign SAMPLER_SET[90]: 1680  LLC: 2048
SAMPLER_SET[90]: 1680
Assign SAMPLER_SET[91]: 1477  LLC: 2048
SAMPLER_SET[91]: 1477
Assign SAMPLER_SET[92]: 9  LLC: 2048
SAMPLER_SET[92]: 9
Assign SAMPLER_SET[93]: 1500  LLC: 2048
SAMPLER_SET[93]: 1500
Assign SAMPLER_SET[94]: 851  LLC: 2048
SAMPLER_SET[94]: 851
Assign SAMPLER_SET[95]: 973  LLC: 2048
SAMPLER_SET[95]: 973
Assign SAMPLER_SET[96]: 938  LLC: 2048
SAMPLER_SET[96]: 938
Assign SAMPLER_SET[97]: 1851  LLC: 2048
SAMPLER_SET[97]: 1851
Assign SAMPLER_SET[98]: 1608  LLC: 2048
SAMPLER_SET[98]: 1608
Assign SAMPLER_SET[99]: 1945  LLC: 2048
Assign SAMPLER_SET[99]: 1106  LLC: 2048
SAMPLER_SET[99]: 1106
Assign SAMPLER_SET[100]: 979  LLC: 2048
SAMPLER_SET[100]: 979
Assign SAMPLER_SET[101]: 338  LLC: 2048
SAMPLER_SET[101]: 338
Assign SAMPLER_SET[102]: 1693  LLC: 2048
SAMPLER_SET[102]: 1693
Assign SAMPLER_SET[103]: 6  LLC: 2048
SAMPLER_SET[103]: 6
Assign SAMPLER_SET[104]: 671  LLC: 2048
SAMPLER_SET[104]: 671
Assign SAMPLER_SET[105]: 490  LLC: 2048
SAMPLER_SET[105]: 490
Assign SAMPLER_SET[106]: 1461  LLC: 2048
SAMPLER_SET[106]: 1461
Assign SAMPLER_SET[107]: 1730  LLC: 2048
SAMPLER_SET[107]: 1730
Assign SAMPLER_SET[108]: 1030  LLC: 2048
SAMPLER_SET[108]: 1030
Assign SAMPLER_SET[109]: 19  LLC: 2048
SAMPLER_SET[109]: 19
Assign SAMPLER_SET[110]: 920  LLC: 2048
Assign SAMPLER_SET[110]: 329  LLC: 2048
SAMPLER_SET[110]: 329
Assign SAMPLER_SET[111]: 1714  LLC: 2048
SAMPLER_SET[111]: 1714
Assign SAMPLER_SET[112]: 1  LLC: 2048
SAMPLER_SET[112]: 1
Assign SAMPLER_SET[113]: 1822  LLC: 2048
SAMPLER_SET[113]: 1822
Assign SAMPLER_SET[114]: 172  LLC: 2048
SAMPLER_SET[114]: 172
Assign SAMPLER_SET[115]: 1586  LLC: 2048
SAMPLER_SET[115]: 1586
Assign SAMPLER_SET[116]: 648  LLC: 2048
SAMPLER_SET[116]: 648
Assign SAMPLER_SET[117]: 1329  LLC: 2048
SAMPLER_SET[117]: 1329
Assign SAMPLER_SET[118]: 668  LLC: 2048
SAMPLER_SET[118]: 668
Assign SAMPLER_SET[119]: 1874  LLC: 2048
SAMPLER_SET[119]: 1874
Assign SAMPLER_SET[120]: 70  LLC: 2048
SAMPLER_SET[120]: 70
Assign SAMPLER_SET[121]: 661  LLC: 2048
SAMPLER_SET[121]: 661
Assign SAMPLER_SET[122]: 1649  LLC: 2048
SAMPLER_SET[122]: 1649
Assign SAMPLER_SET[123]: 1590  LLC: 2048
SAMPLER_SET[123]: 1590
Assign SAMPLER_SET[124]: 911  LLC: 2048
SAMPLER_SET[124]: 911
Assign SAMPLER_SET[125]: 1367  LLC: 2048
SAMPLER_SET[125]: 1367
Assign SAMPLER_SET[126]: 1782  LLC: 2048
SAMPLER_SET[126]: 1782
Assign SAMPLER_SET[127]: 569  LLC: 2048
SAMPLER_SET[127]: 569
Heartbeat CPU 0 instructions: 10000003 cycles: 4649866 heartbeat IPC: 2.1506 cumulative IPC: 2.1506 (Simulation time: 0 hr 0 min 25 sec) 
Heartbeat CPU 0 instructions: 20000003 cycles: 9296125 heartbeat IPC: 2.15227 cumulative IPC: 2.15143 (Simulation time: 0 hr 0 min 49 sec) 
Heartbeat CPU 0 instructions: 30000001 cycles: 13960957 heartbeat IPC: 2.1437 cumulative IPC: 2.14885 (Simulation time: 0 hr 1 min 13 sec) 
Heartbeat CPU 0 instructions: 40000002 cycles: 18612420 heartbeat IPC: 2.14986 cumulative IPC: 2.1491 (Simulation time: 0 hr 1 min 38 sec) 
Heartbeat CPU 0 instructions: 50000001 cycles: 23258800 heartbeat IPC: 2.15221 cumulative IPC: 2.14972 (Simulation time: 0 hr 2 min 2 sec) 
Heartbeat CPU 0 instructions: 60000000 cycles: 27917160 heartbeat IPC: 2.14668 cumulative IPC: 2.14922 (Simulation time: 0 hr 2 min 27 sec) 
Heartbeat CPU 0 instructions: 70000001 cycles: 32574965 heartbeat IPC: 2.14693 cumulative IPC: 2.14889 (Simulation time: 0 hr 2 min 51 sec) 
Heartbeat CPU 0 instructions: 80000001 cycles: 37239077 heartbeat IPC: 2.14403 cumulative IPC: 2.14828 (Simulation time: 0 hr 3 min 15 sec) 
Heartbeat CPU 0 instructions: 90000003 cycles: 41905566 heartbeat IPC: 2.14294 cumulative IPC: 2.14769 (Simulation time: 0 hr 3 min 40 sec) 
Heartbeat CPU 0 instructions: 100000000 cycles: 46546248 heartbeat IPC: 2.15486 cumulative IPC: 2.1484 (Simulation time: 0 hr 4 min 4 sec) 

Warmup complete CPU 0 instructions: 100000004 cycles: 46546249 (Simulation time: 0 hr 4 min 4 sec) 

Heartbeat CPU 0 instructions: 110000000 cycles: 58833893 heartbeat IPC: 0.813826 cumulative IPC: 0.813825 (Simulation time: 0 hr 4 min 21 sec) 
Heartbeat CPU 0 instructions: 120000001 cycles: 75991778 heartbeat IPC: 0.582823 cumulative IPC: 0.67922 (Simulation time: 0 hr 4 min 41 sec) 
Heartbeat CPU 0 instructions: 130000000 cycles: 88426125 heartbeat IPC: 0.804224 cumulative IPC: 0.716334 (Simulation time: 0 hr 4 min 58 sec) 
Heartbeat CPU 0 instructions: 140000000 cycles: 100785446 heartbeat IPC: 0.809106 cumulative IPC: 0.737474 (Simulation time: 0 hr 5 min 15 sec) 
Heartbeat CPU 0 instructions: 150000001 cycles: 113094289 heartbeat IPC: 0.812424 cumulative IPC: 0.751337 (Simulation time: 0 hr 5 min 32 sec) 
Heartbeat CPU 0 instructions: 160000002 cycles: 125469339 heartbeat IPC: 0.808078 cumulative IPC: 0.760234 (Simulation time: 0 hr 5 min 49 sec) 
Heartbeat CPU 0 instructions: 170000001 cycles: 137909002 heartbeat IPC: 0.80388 cumulative IPC: 0.766177 (Simulation time: 0 hr 6 min 6 sec) 
Heartbeat CPU 0 instructions: 180000000 cycles: 150296398 heartbeat IPC: 0.807272 cumulative IPC: 0.771083 (Simulation time: 0 hr 6 min 23 sec) 
Heartbeat CPU 0 instructions: 190000002 cycles: 162681896 heartbeat IPC: 0.807396 cumulative IPC: 0.774956 (Simulation time: 0 hr 6 min 40 sec) 
Heartbeat CPU 0 instructions: 200000000 cycles: 175043614 heartbeat IPC: 0.808949 cumulative IPC: 0.778226 (Simulation time: 0 hr 6 min 57 sec) 
Heartbeat CPU 0 instructions: 210000001 cycles: 187328965 heartbeat IPC: 0.813978 cumulative IPC: 0.781346 (Simulation time: 0 hr 7 min 14 sec) 
Heartbeat CPU 0 instructions: 220000000 cycles: 199700172 heartbeat IPC: 0.808329 cumulative IPC: 0.783525 (Simulation time: 0 hr 7 min 31 sec) 
Heartbeat CPU 0 instructions: 230000000 cycles: 212102673 heartbeat IPC: 0.806289 cumulative IPC: 0.785231 (Simulation time: 0 hr 7 min 48 sec) 
Heartbeat CPU 0 instructions: 240000001 cycles: 224493764 heartbeat IPC: 0.807032 cumulative IPC: 0.786749 (Simulation time: 0 hr 8 min 5 sec) 
Heartbeat CPU 0 instructions: 250000002 cycles: 236837124 heartbeat IPC: 0.810152 cumulative IPC: 0.788267 (Simulation time: 0 hr 8 min 22 sec) 
Heartbeat CPU 0 instructions: 260000000 cycles: 249156965 heartbeat IPC: 0.811699 cumulative IPC: 0.789692 (Simulation time: 0 hr 8 min 40 sec) 
Heartbeat CPU 0 instructions: 270000000 cycles: 261502009 heartbeat IPC: 0.810042 cumulative IPC: 0.79086 (Simulation time: 0 hr 8 min 57 sec) 
Heartbeat CPU 0 instructions: 280000000 cycles: 273839398 heartbeat IPC: 0.810544 cumulative IPC: 0.791929 (Simulation time: 0 hr 9 min 14 sec) 
Heartbeat CPU 0 instructions: 290000000 cycles: 286090767 heartbeat IPC: 0.816235 cumulative IPC: 0.793172 (Simulation time: 0 hr 9 min 31 sec) 
Heartbeat CPU 0 instructions: 300000001 cycles: 298404725 heartbeat IPC: 0.812087 cumulative IPC: 0.794097 (Simulation time: 0 hr 9 min 48 sec) 
Heartbeat CPU 0 instructions: 310000000 cycles: 310671228 heartbeat IPC: 0.815228 cumulative IPC: 0.795078 (Simulation time: 0 hr 10 min 5 sec) 
Heartbeat CPU 0 instructions: 320000002 cycles: 322979151 heartbeat IPC: 0.812485 cumulative IPC: 0.795853 (Simulation time: 0 hr 10 min 23 sec) 
Heartbeat CPU 0 instructions: 330000000 cycles: 335229529 heartbeat IPC: 0.816301 cumulative IPC: 0.796721 (Simulation time: 0 hr 10 min 40 sec) 
Heartbeat CPU 0 instructions: 340000001 cycles: 347524430 heartbeat IPC: 0.813345 cumulative IPC: 0.7974 (Simulation time: 0 hr 10 min 57 sec) 
Heartbeat CPU 0 instructions: 350000001 cycles: 359876243 heartbeat IPC: 0.809598 cumulative IPC: 0.797881 (Simulation time: 0 hr 11 min 15 sec) 
Heartbeat CPU 0 instructions: 360000003 cycles: 372189822 heartbeat IPC: 0.812112 cumulative IPC: 0.798419 (Simulation time: 0 hr 11 min 32 sec) 
Heartbeat CPU 0 instructions: 370000002 cycles: 384455963 heartbeat IPC: 0.815252 cumulative IPC: 0.79903 (Simulation time: 0 hr 11 min 49 sec) 
Heartbeat CPU 0 instructions: 380000001 cycles: 396821217 heartbeat IPC: 0.808718 cumulative IPC: 0.799372 (Simulation time: 0 hr 12 min 6 sec) 
Heartbeat CPU 0 instructions: 390000001 cycles: 409202087 heartbeat IPC: 0.807698 cumulative IPC: 0.799656 (Simulation time: 0 hr 12 min 24 sec) 
Heartbeat CPU 0 instructions: 400000000 cycles: 421523190 heartbeat IPC: 0.811616 cumulative IPC: 0.800049 (Simulation time: 0 hr 12 min 41 sec) 
Heartbeat CPU 0 instructions: 410000001 cycles: 433794650 heartbeat IPC: 0.814899 cumulative IPC: 0.80052 (Simulation time: 0 hr 12 min 58 sec) 
Heartbeat CPU 0 instructions: 420000000 cycles: 446155942 heartbeat IPC: 0.808977 cumulative IPC: 0.800781 (Simulation time: 0 hr 13 min 16 sec) 
Heartbeat CPU 0 instructions: 430000001 cycles: 458573802 heartbeat IPC: 0.805292 cumulative IPC: 0.800917 (Simulation time: 0 hr 13 min 33 sec) 
Heartbeat CPU 0 instructions: 440000000 cycles: 470899300 heartbeat IPC: 0.811326 cumulative IPC: 0.80122 (Simulation time: 0 hr 13 min 50 sec) 
Heartbeat CPU 0 instructions: 450000002 cycles: 483271642 heartbeat IPC: 0.808255 cumulative IPC: 0.801419 (Simulation time: 0 hr 14 min 7 sec) 
Heartbeat CPU 0 instructions: 460000000 cycles: 495607750 heartbeat IPC: 0.810628 cumulative IPC: 0.801672 (Simulation time: 0 hr 14 min 24 sec) 
Heartbeat CPU 0 instructions: 470000000 cycles: 507991097 heartbeat IPC: 0.807536 cumulative IPC: 0.801829 (Simulation time: 0 hr 14 min 41 sec) 
Heartbeat CPU 0 instructions: 480000001 cycles: 520374479 heartbeat IPC: 0.807534 cumulative IPC: 0.801978 (Simulation time: 0 hr 14 min 58 sec) 
Heartbeat CPU 0 instructions: 490000000 cycles: 532552997 heartbeat IPC: 0.821118 cumulative IPC: 0.802458 (Simulation time: 0 hr 15 min 15 sec) 
Heartbeat CPU 0 instructions: 500000002 cycles: 544812033 heartbeat IPC: 0.815725 cumulative IPC: 0.802784 (Simulation time: 0 hr 15 min 32 sec) 
Heartbeat CPU 0 instructions: 510000003 cycles: 557143501 heartbeat IPC: 0.810934 cumulative IPC: 0.802981 (Simulation time: 0 hr 15 min 50 sec) 
Heartbeat CPU 0 instructions: 520000001 cycles: 569564538 heartbeat IPC: 0.805086 cumulative IPC: 0.803031 (Simulation time: 0 hr 16 min 7 sec) 
Heartbeat CPU 0 instructions: 530000002 cycles: 581933645 heartbeat IPC: 0.808466 cumulative IPC: 0.803157 (Simulation time: 0 hr 16 min 24 sec) 
Heartbeat CPU 0 instructions: 540000001 cycles: 594265112 heartbeat IPC: 0.810933 cumulative IPC: 0.803332 (Simulation time: 0 hr 16 min 42 sec) 
Heartbeat CPU 0 instructions: 550000000 cycles: 606589228 heartbeat IPC: 0.811417 cumulative IPC: 0.80351 (Simulation time: 0 hr 16 min 59 sec) 
Heartbeat CPU 0 instructions: 560000001 cycles: 618941516 heartbeat IPC: 0.809567 cumulative IPC: 0.80364 (Simulation time: 0 hr 17 min 16 sec) 
Heartbeat CPU 0 instructions: 570000001 cycles: 631287993 heartbeat IPC: 0.809948 cumulative IPC: 0.803774 (Simulation time: 0 hr 17 min 34 sec) 
Heartbeat CPU 0 instructions: 580000000 cycles: 643563841 heartbeat IPC: 0.814608 cumulative IPC: 0.803996 (Simulation time: 0 hr 17 min 51 sec) 
Heartbeat CPU 0 instructions: 590000000 cycles: 655891081 heartbeat IPC: 0.811212 cumulative IPC: 0.804142 (Simulation time: 0 hr 18 min 8 sec) 
Heartbeat CPU 0 instructions: 600000001 cycles: 668194087 heartbeat IPC: 0.81281 cumulative IPC: 0.804314 (Simulation time: 0 hr 18 min 25 sec) 
Heartbeat CPU 0 instructions: 610000002 cycles: 680534702 heartbeat IPC: 0.810332 cumulative IPC: 0.804431 (Simulation time: 0 hr 18 min 43 sec) 
Heartbeat CPU 0 instructions: 620000002 cycles: 692893239 heartbeat IPC: 0.809157 cumulative IPC: 0.804521 (Simulation time: 0 hr 19 min 0 sec) 
Heartbeat CPU 0 instructions: 630000001 cycles: 705251409 heartbeat IPC: 0.809181 cumulative IPC: 0.804609 (Simulation time: 0 hr 19 min 17 sec) 
Heartbeat CPU 0 instructions: 640000002 cycles: 717644123 heartbeat IPC: 0.806926 cumulative IPC: 0.804652 (Simulation time: 0 hr 19 min 34 sec) 
Heartbeat CPU 0 instructions: 650000001 cycles: 729994413 heartbeat IPC: 0.809698 cumulative IPC: 0.804743 (Simulation time: 0 hr 19 min 52 sec) 
Heartbeat CPU 0 instructions: 660000000 cycles: 742309493 heartbeat IPC: 0.812012 cumulative IPC: 0.804871 (Simulation time: 0 hr 20 min 9 sec) 
Heartbeat CPU 0 instructions: 670000000 cycles: 754653956 heartbeat IPC: 0.81008 cumulative IPC: 0.804962 (Simulation time: 0 hr 20 min 26 sec) 
Heartbeat CPU 0 instructions: 680000003 cycles: 767022168 heartbeat IPC: 0.808525 cumulative IPC: 0.805023 (Simulation time: 0 hr 20 min 43 sec) 
Heartbeat CPU 0 instructions: 690000000 cycles: 779358934 heartbeat IPC: 0.810585 cumulative IPC: 0.805117 (Simulation time: 0 hr 21 min 1 sec) 
Heartbeat CPU 0 instructions: 700000002 cycles: 791710514 heartbeat IPC: 0.809613 cumulative IPC: 0.805192 (Simulation time: 0 hr 21 min 18 sec) 
Heartbeat CPU 0 instructions: 710000002 cycles: 803992189 heartbeat IPC: 0.814221 cumulative IPC: 0.805338 (Simulation time: 0 hr 21 min 35 sec) 
Heartbeat CPU 0 instructions: 720000001 cycles: 816377589 heartbeat IPC: 0.807402 cumulative IPC: 0.805371 (Simulation time: 0 hr 21 min 52 sec) 
Heartbeat CPU 0 instructions: 730000000 cycles: 828744118 heartbeat IPC: 0.808634 cumulative IPC: 0.805423 (Simulation time: 0 hr 22 min 9 sec) 
Heartbeat CPU 0 instructions: 740000002 cycles: 841089860 heartbeat IPC: 0.809996 cumulative IPC: 0.805494 (Simulation time: 0 hr 22 min 26 sec) 
Heartbeat CPU 0 instructions: 750000001 cycles: 853464328 heartbeat IPC: 0.808115 cumulative IPC: 0.805534 (Simulation time: 0 hr 22 min 43 sec) 
Heartbeat CPU 0 instructions: 760000002 cycles: 865812742 heartbeat IPC: 0.809821 cumulative IPC: 0.805599 (Simulation time: 0 hr 23 min 1 sec) 
Heartbeat CPU 0 instructions: 770000000 cycles: 878124252 heartbeat IPC: 0.812248 cumulative IPC: 0.805697 (Simulation time: 0 hr 23 min 18 sec) 
Heartbeat CPU 0 instructions: 780000000 cycles: 890491837 heartbeat IPC: 0.808565 cumulative IPC: 0.805739 (Simulation time: 0 hr 23 min 35 sec) 
Heartbeat CPU 0 instructions: 790000000 cycles: 902791856 heartbeat IPC: 0.813007 cumulative IPC: 0.805844 (Simulation time: 0 hr 23 min 53 sec) 
Heartbeat CPU 0 instructions: 800000001 cycles: 915117618 heartbeat IPC: 0.811309 cumulative IPC: 0.805921 (Simulation time: 0 hr 24 min 10 sec) 
Heartbeat CPU 0 instructions: 810000001 cycles: 927428642 heartbeat IPC: 0.81228 cumulative IPC: 0.80601 (Simulation time: 0 hr 24 min 27 sec) 
Heartbeat CPU 0 instructions: 820000000 cycles: 939775577 heartbeat IPC: 0.809918 cumulative IPC: 0.806064 (Simulation time: 0 hr 24 min 45 sec) 
Heartbeat CPU 0 instructions: 830000000 cycles: 952071884 heartbeat IPC: 0.813252 cumulative IPC: 0.806162 (Simulation time: 0 hr 25 min 2 sec) 
Heartbeat CPU 0 instructions: 840000001 cycles: 964334830 heartbeat IPC: 0.815465 cumulative IPC: 0.806286 (Simulation time: 0 hr 25 min 19 sec) 
Heartbeat CPU 0 instructions: 850000000 cycles: 976653004 heartbeat IPC: 0.811809 cumulative IPC: 0.806359 (Simulation time: 0 hr 25 min 36 sec) 
Heartbeat CPU 0 instructions: 860000000 cycles: 988954518 heartbeat IPC: 0.812908 cumulative IPC: 0.806445 (Simulation time: 0 hr 25 min 53 sec) 
Heartbeat CPU 0 instructions: 870000002 cycles: 1001288016 heartbeat IPC: 0.8108 cumulative IPC: 0.806501 (Simulation time: 0 hr 26 min 11 sec) 
Heartbeat CPU 0 instructions: 880000000 cycles: 1013629569 heartbeat IPC: 0.810271 cumulative IPC: 0.806549 (Simulation time: 0 hr 26 min 28 sec) 
Heartbeat CPU 0 instructions: 890000002 cycles: 1025864409 heartbeat IPC: 0.817338 cumulative IPC: 0.806684 (Simulation time: 0 hr 26 min 45 sec) 
Heartbeat CPU 0 instructions: 900000002 cycles: 1038069243 heartbeat IPC: 0.819348 cumulative IPC: 0.80684 (Simulation time: 0 hr 27 min 3 sec) 
Heartbeat CPU 0 instructions: 910000001 cycles: 1050306361 heartbeat IPC: 0.817186 cumulative IPC: 0.806966 (Simulation time: 0 hr 27 min 20 sec) 
Heartbeat CPU 0 instructions: 920000001 cycles: 1062620469 heartbeat IPC: 0.812077 cumulative IPC: 0.807028 (Simulation time: 0 hr 27 min 37 sec) 
Heartbeat CPU 0 instructions: 930000002 cycles: 1074944845 heartbeat IPC: 0.8114 cumulative IPC: 0.80708 (Simulation time: 0 hr 27 min 54 sec) 
Heartbeat CPU 0 instructions: 940000000 cycles: 1087177414 heartbeat IPC: 0.81749 cumulative IPC: 0.807202 (Simulation time: 0 hr 28 min 11 sec) 
Heartbeat CPU 0 instructions: 950000000 cycles: 1099417737 heartbeat IPC: 0.816972 cumulative IPC: 0.807316 (Simulation time: 0 hr 28 min 29 sec) 
Heartbeat CPU 0 instructions: 960000001 cycles: 1116369785 heartbeat IPC: 0.589899 cumulative IPC: 0.803871 (Simulation time: 0 hr 28 min 49 sec) 
Heartbeat CPU 0 instructions: 970000000 cycles: 1128630505 heartbeat IPC: 0.815613 cumulative IPC: 0.804004 (Simulation time: 0 hr 29 min 6 sec) 
Heartbeat CPU 0 instructions: 980000002 cycles: 1140862138 heartbeat IPC: 0.817553 cumulative IPC: 0.804155 (Simulation time: 0 hr 29 min 23 sec) 
Heartbeat CPU 0 instructions: 990000000 cycles: 1153108197 heartbeat IPC: 0.816589 cumulative IPC: 0.804293 (Simulation time: 0 hr 29 min 41 sec) 
Heartbeat CPU 0 instructions: 1000000000 cycles: 1165383136 heartbeat IPC: 0.814668 cumulative IPC: 0.804407 (Simulation time: 0 hr 29 min 58 sec) 
Heartbeat CPU 0 instructions: 1010000002 cycles: 1177615346 heartbeat IPC: 0.817514 cumulative IPC: 0.804549 (Simulation time: 0 hr 30 min 15 sec) 
Heartbeat CPU 0 instructions: 1020000001 cycles: 1189840181 heartbeat IPC: 0.818007 cumulative IPC: 0.804692 (Simulation time: 0 hr 30 min 33 sec) 
Heartbeat CPU 0 instructions: 1030000000 cycles: 1202083247 heartbeat IPC: 0.816789 cumulative IPC: 0.804821 (Simulation time: 0 hr 30 min 50 sec) 
Heartbeat CPU 0 instructions: 1040000003 cycles: 1214313618 heartbeat IPC: 0.817637 cumulative IPC: 0.804955 (Simulation time: 0 hr 31 min 7 sec) 
Heartbeat CPU 0 instructions: 1050000003 cycles: 1226620337 heartbeat IPC: 0.812564 cumulative IPC: 0.805034 (Simulation time: 0 hr 31 min 24 sec) 
Heartbeat CPU 0 instructions: 1060000001 cycles: 1238845974 heartbeat IPC: 0.817953 cumulative IPC: 0.805167 (Simulation time: 0 hr 31 min 41 sec) 
Heartbeat CPU 0 instructions: 1070000000 cycles: 1251086543 heartbeat IPC: 0.816955 cumulative IPC: 0.805286 (Simulation time: 0 hr 31 min 59 sec) 
Heartbeat CPU 0 instructions: 1080000001 cycles: 1263366073 heartbeat IPC: 0.814363 cumulative IPC: 0.805378 (Simulation time: 0 hr 32 min 16 sec) 
Heartbeat CPU 0 instructions: 1090000000 cycles: 1275653234 heartbeat IPC: 0.813858 cumulative IPC: 0.805463 (Simulation time: 0 hr 32 min 33 sec) 
Heartbeat CPU 0 instructions: 1100000000 cycles: 1287852039 heartbeat IPC: 0.819752 cumulative IPC: 0.805603 (Simulation time: 0 hr 32 min 51 sec) 
Finished CPU 0 instructions: 1000000000 cycles: 1241305799 cumulative IPC: 0.805603 (Simulation time: 0 hr 32 min 51 sec) 

ChampSim completed all CPUs

Region of Interest Statistics

CPU 0 cumulative IPC: 0.805603 instructions: 1000000000 cycles: 1241305799
L1D TOTAL     ACCESS:  316202618  HIT:  313246715  MISS:    2955903
L1D LOAD      ACCESS:  201700787  HIT:  199098527  MISS:    2602260
L1D RFO       ACCESS:  114501831  HIT:  114148188  MISS:     353643
L1D PREFETCH  ACCESS:          0  HIT:          0  MISS:          0
L1D WRITEBACK ACCESS:          0  HIT:          0  MISS:          0
L1D PREFETCH  REQUESTED:          0  ISSUED:          0  USEFUL:          0  USELESS:          0
L1D AVERAGE MISS LATENCY: 19.7779 cycles
L1I TOTAL     ACCESS:  183737833  HIT:  183681215  MISS:      56618
L1I LOAD      ACCESS:  183737833  HIT:  183681215  MISS:      56618
L1I RFO       ACCESS:          0  HIT:          0  MISS:          0
L1I PREFETCH  ACCESS:          0  HIT:          0  MISS:          0
L1I WRITEBACK ACCESS:          0  HIT:          0  MISS:          0
L1I PREFETCH  REQUESTED:          0  ISSUED:          0  USEFUL:          0  USELESS:          0
L1I AVERAGE MISS LATENCY: 20.2947 cycles
L2C TOTAL     ACCESS:    3594696  HIT:    3386188  MISS:     208508
L2C LOAD      ACCESS:    2658719  HIT:    2519415  MISS:     139304
L2C RFO       ACCESS:     353635  HIT:     284501  MISS:      69134
L2C PREFETCH  ACCESS:          0  HIT:          0  MISS:          0
L2C WRITEBACK ACCESS:     582342  HIT:     582272  MISS:         70
L2C PREFETCH  REQUESTED:          0  ISSUED:          0  USEFUL:          0  USELESS:          0
L2C AVERAGE MISS LATENCY: 112.13 cycles
LLC TOTAL     ACCESS:     285892  HIT:     165557  MISS:     120335
LLC LOAD      ACCESS:     139302  HIT:      95053  MISS:      44249
LLC RFO       ACCESS:      69134  HIT:      17440  MISS:      51694
LLC PREFETCH  ACCESS:          0  HIT:          0  MISS:          0
LLC WRITEBACK ACCESS:      77456  HIT:      53064  MISS:      24392
LLC PREFETCH  REQUESTED:          0  ISSUED:          0  USEFUL:          0  USELESS:          0
LLC AVERAGE MISS LATENCY: 124.697 cycles
Major fault: 0 Minor fault: 1740
==============================
Perceptron RRIP Stats:
   Num Updates:          12529
   Num Primary Trains:   762
   Num Secondary Trains: 784
==============================
primary_perceptron #0: 0 8 2 2 0 -2 2 -2 -4 -2 0 -6 4 4 0 -4 
secondary_perceptron #0: 0 10 0 2 4 0 0 -4 -2 -2 -2 -6 6 6 0 0 2 4 0 0 -6 


DRAM Statistics
 CHANNEL 0
 RQ ROW_BUFFER_HIT:      38879  ROW_BUFFER_MISS:      57047
 DBUS_CONGESTED:      30152
 WQ ROW_BUFFER_HIT:      16540  ROW_BUFFER_MISS:      20142  FULL:       1494

 AVG_CONGESTED_CYCLE: 6

CPU 0 Branch Prediction Accuracy: 87.4973% MPKI: 20.452 Average ROB Occupancy at Mispredict: 22.6976

Branch types
NOT_BRANCH: 836419616 83.642%
BRANCH_DIRECT_JUMP: 5445299 0.54453%
BRANCH_INDIRECT: 6861 0.0006861%
BRANCH_CONDITIONAL: 99292811 9.92928%
BRANCH_DIRECT_CALL: 29417492 2.94175%
BRANCH_INDIRECT_CALL: 78 7.8e-06%
BRANCH_RETURN: 29417568 2.94176%
BRANCH_OTHER: 0 0%

