
*** ChampSim Multicore Out-of-Order Simulator ***

Warmup Instructions: 100000000
Simulation Instructions: 1000000000
Number of CPUs: 1
LLC sets: 2048
LLC ways: 16
Off-chip DRAM Size: 4096 MB Channels: 1 Width: 64-bit Data Rate: 3200 MT/s

CPU 0 runs /scratch/user/kevin.weston/dpc3-traces/641.champsimtrace.xz
CPU 0 Bimodal branch predictor
Per-line RRPV Initialized
PRRIP State Initialized
Assign SAMPLER_SET[0]: 454  LLC: 2048
SAMPLER_SET[0]: 454
Assign SAMPLER_SET[1]: 1662  LLC: 2048
SAMPLER_SET[1]: 1662
Assign SAMPLER_SET[2]: 1921  LLC: 2048
SAMPLER_SET[2]: 1921
Assign SAMPLER_SET[3]: 1131  LLC: 2048
SAMPLER_SET[3]: 1131
Assign SAMPLER_SET[4]: 331  LLC: 2048
SAMPLER_SET[4]: 331
Assign SAMPLER_SET[5]: 1531  LLC: 2048
SAMPLER_SET[5]: 1531
Assign SAMPLER_SET[6]: 482  LLC: 2048
SAMPLER_SET[6]: 482
Assign SAMPLER_SET[7]: 1275  LLC: 2048
SAMPLER_SET[7]: 1275
Assign SAMPLER_SET[8]: 1876  LLC: 2048
SAMPLER_SET[8]: 1876
Assign SAMPLER_SET[9]: 2038  LLC: 2048
SAMPLER_SET[9]: 2038
Assign SAMPLER_SET[10]: 701  LLC: 2048
SAMPLER_SET[10]: 701
Assign SAMPLER_SET[11]: 479  LLC: 2048
SAMPLER_SET[11]: 479
Assign SAMPLER_SET[12]: 892  LLC: 2048
SAMPLER_SET[12]: 892
Assign SAMPLER_SET[13]: 1820  LLC: 2048
SAMPLER_SET[13]: 1820
Assign SAMPLER_SET[14]: 1505  LLC: 2048
SAMPLER_SET[14]: 1505
Assign SAMPLER_SET[15]: 1159  LLC: 2048
SAMPLER_SET[15]: 1159
Assign SAMPLER_SET[16]: 513  LLC: 2048
SAMPLER_SET[16]: 513
Assign SAMPLER_SET[17]: 703  LLC: 2048
SAMPLER_SET[17]: 703
Assign SAMPLER_SET[18]: 561  LLC: 2048
SAMPLER_SET[18]: 561
Assign SAMPLER_SET[19]: 990  LLC: 2048
SAMPLER_SET[19]: 990
Assign SAMPLER_SET[20]: 342  LLC: 2048
SAMPLER_SET[20]: 342
Assign SAMPLER_SET[21]: 882  LLC: 2048
SAMPLER_SET[21]: 882
Assign SAMPLER_SET[22]: 15  LLC: 2048
SAMPLER_SET[22]: 15
Assign SAMPLER_SET[23]: 71  LLC: 2048
SAMPLER_SET[23]: 71
Assign SAMPLER_SET[24]: 1127  LLC: 2048
SAMPLER_SET[24]: 1127
Assign SAMPLER_SET[25]: 1382  LLC: 2048
SAMPLER_SET[25]: 1382
Assign SAMPLER_SET[26]: 647  LLC: 2048
SAMPLER_SET[26]: 647
Assign SAMPLER_SET[27]: 857  LLC: 2048
SAMPLER_SET[27]: 857
Assign SAMPLER_SET[28]: 1450  LLC: 2048
SAMPLER_SET[28]: 1450
Assign SAMPLER_SET[29]: 1160  LLC: 2048
SAMPLER_SET[29]: 1160
Assign SAMPLER_SET[30]: 1852  LLC: 2048
SAMPLER_SET[30]: 1852
Assign SAMPLER_SET[31]: 1881  LLC: 2048
SAMPLER_SET[31]: 1881
Assign SAMPLER_SET[32]: 1770  LLC: 2048
SAMPLER_SET[32]: 1770
Assign SAMPLER_SET[33]: 1622  LLC: 2048
SAMPLER_SET[33]: 1622
Assign SAMPLER_SET[34]: 275  LLC: 2048
SAMPLER_SET[34]: 275
Assign SAMPLER_SET[35]: 635  LLC: 2048
SAMPLER_SET[35]: 635
Assign SAMPLER_SET[36]: 466  LLC: 2048
SAMPLER_SET[36]: 466
Assign SAMPLER_SET[37]: 1413  LLC: 2048
SAMPLER_SET[37]: 1413
Assign SAMPLER_SET[38]: 417  LLC: 2048
SAMPLER_SET[38]: 417
Assign SAMPLER_SET[39]: 472  LLC: 2048
SAMPLER_SET[39]: 472
Assign SAMPLER_SET[40]: 1340  LLC: 2048
SAMPLER_SET[40]: 1340
Assign SAMPLER_SET[41]: 852  LLC: 2048
SAMPLER_SET[41]: 852
Assign SAMPLER_SET[42]: 1365  LLC: 2048
SAMPLER_SET[42]: 1365
Assign SAMPLER_SET[43]: 47  LLC: 2048
SAMPLER_SET[43]: 47
Assign SAMPLER_SET[44]: 823  LLC: 2048
SAMPLER_SET[44]: 823
Assign SAMPLER_SET[45]: 686  LLC: 2048
SAMPLER_SET[45]: 686
Assign SAMPLER_SET[46]: 1637  LLC: 2048
SAMPLER_SET[46]: 1637
Assign SAMPLER_SET[47]: 1115  LLC: 2048
SAMPLER_SET[47]: 1115
Assign SAMPLER_SET[48]: 986  LLC: 2048
SAMPLER_SET[48]: 986
Assign SAMPLER_SET[49]: 258  LLC: 2048
SAMPLER_SET[49]: 258
Assign SAMPLER_SET[50]: 633  LLC: 2048
SAMPLER_SET[50]: 633
Assign SAMPLER_SET[51]: 920  LLC: 2048
SAMPLER_SET[51]: 920
Assign SAMPLER_SET[52]: 204  LLC: 2048
SAMPLER_SET[52]: 204
Assign SAMPLER_SET[53]: 227  LLC: 2048
SAMPLER_SET[53]: 227
Assign SAMPLER_SET[54]: 1818  LLC: 2048
SAMPLER_SET[54]: 1818
Assign SAMPLER_SET[55]: 886  LLC: 2048
SAMPLER_SET[55]: 886
Assign SAMPLER_SET[56]: 1422  LLC: 2048
SAMPLER_SET[56]: 1422
Assign SAMPLER_SET[57]: 607  LLC: 2048
SAMPLER_SET[57]: 607
Assign SAMPLER_SET[58]: 217  LLC: 2048
SAMPLER_SET[58]: 217
Assign SAMPLER_SET[59]: 1945  LLC: 2048
SAMPLER_SET[59]: 1945
Assign SAMPLER_SET[60]: 143  LLC: 2048
SAMPLER_SET[60]: 143
Assign SAMPLER_SET[61]: 1311  LLC: 2048
SAMPLER_SET[61]: 1311
Assign SAMPLER_SET[62]: 319  LLC: 2048
SAMPLER_SET[62]: 319
Assign SAMPLER_SET[63]: 1846  LLC: 2048
SAMPLER_SET[63]: 1846
Assign SAMPLER_SET[64]: 238  LLC: 2048
SAMPLER_SET[64]: 238
Assign SAMPLER_SET[65]: 67  LLC: 2048
SAMPLER_SET[65]: 67
Assign SAMPLER_SET[66]: 1912  LLC: 2048
SAMPLER_SET[66]: 1912
Assign SAMPLER_SET[67]: 1613  LLC: 2048
SAMPLER_SET[67]: 1613
Assign SAMPLER_SET[68]: 1293  LLC: 2048
SAMPLER_SET[68]: 1293
Assign SAMPLER_SET[69]: 1018  LLC: 2048
SAMPLER_SET[69]: 1018
Assign SAMPLER_SET[70]: 1982  LLC: 2048
SAMPLER_SET[70]: 1982
Assign SAMPLER_SET[71]: 1702  LLC: 2048
SAMPLER_SET[71]: 1702
Assign SAMPLER_SET[72]: 1498  LLC: 2048
SAMPLER_SET[72]: 1498
Assign SAMPLER_SET[73]: 228  LLC: 2048
SAMPLER_SET[73]: 228
Assign SAMPLER_SET[74]: 1414  LLC: 2048
SAMPLER_SET[74]: 1414
Assign SAMPLER_SET[75]: 1166  LLC: 2048
SAMPLER_SET[75]: 1166
Assign SAMPLER_SET[76]: 732  LLC: 2048
SAMPLER_SET[76]: 732
Assign SAMPLER_SET[77]: 297  LLC: 2048
SAMPLER_SET[77]: 297
Assign SAMPLER_SET[78]: 1133  LLC: 2048
SAMPLER_SET[78]: 1133
Assign SAMPLER_SET[79]: 846  LLC: 2048
SAMPLER_SET[79]: 846
Assign SAMPLER_SET[80]: 767  LLC: 2048
SAMPLER_SET[80]: 767
Assign SAMPLER_SET[81]: 1878  LLC: 2048
SAMPLER_SET[81]: 1878
Assign SAMPLER_SET[82]: 993  LLC: 2048
SAMPLER_SET[82]: 993
Assign SAMPLER_SET[83]: 1392  LLC: 2048
SAMPLER_SET[83]: 1392
Assign SAMPLER_SET[84]: 1568  LLC: 2048
SAMPLER_SET[84]: 1568
Assign SAMPLER_SET[85]: 1787  LLC: 2048
SAMPLER_SET[85]: 1787
Assign SAMPLER_SET[86]: 399  LLC: 2048
SAMPLER_SET[86]: 399
Assign SAMPLER_SET[87]: 1201  LLC: 2048
SAMPLER_SET[87]: 1201
Assign SAMPLER_SET[88]: 856  LLC: 2048
SAMPLER_SET[88]: 856
Assign SAMPLER_SET[89]: 773  LLC: 2048
SAMPLER_SET[89]: 773
Assign SAMPLER_SET[90]: 1680  LLC: 2048
SAMPLER_SET[90]: 1680
Assign SAMPLER_SET[91]: 1477  LLC: 2048
SAMPLER_SET[91]: 1477
Assign SAMPLER_SET[92]: 9  LLC: 2048
SAMPLER_SET[92]: 9
Assign SAMPLER_SET[93]: 1500  LLC: 2048
SAMPLER_SET[93]: 1500
Assign SAMPLER_SET[94]: 851  LLC: 2048
SAMPLER_SET[94]: 851
Assign SAMPLER_SET[95]: 973  LLC: 2048
SAMPLER_SET[95]: 973
Assign SAMPLER_SET[96]: 938  LLC: 2048
SAMPLER_SET[96]: 938
Assign SAMPLER_SET[97]: 1851  LLC: 2048
SAMPLER_SET[97]: 1851
Assign SAMPLER_SET[98]: 1608  LLC: 2048
SAMPLER_SET[98]: 1608
Assign SAMPLER_SET[99]: 1945  LLC: 2048
Assign SAMPLER_SET[99]: 1106  LLC: 2048
SAMPLER_SET[99]: 1106
Assign SAMPLER_SET[100]: 979  LLC: 2048
SAMPLER_SET[100]: 979
Assign SAMPLER_SET[101]: 338  LLC: 2048
SAMPLER_SET[101]: 338
Assign SAMPLER_SET[102]: 1693  LLC: 2048
SAMPLER_SET[102]: 1693
Assign SAMPLER_SET[103]: 6  LLC: 2048
SAMPLER_SET[103]: 6
Assign SAMPLER_SET[104]: 671  LLC: 2048
SAMPLER_SET[104]: 671
Assign SAMPLER_SET[105]: 490  LLC: 2048
SAMPLER_SET[105]: 490
Assign SAMPLER_SET[106]: 1461  LLC: 2048
SAMPLER_SET[106]: 1461
Assign SAMPLER_SET[107]: 1730  LLC: 2048
SAMPLER_SET[107]: 1730
Assign SAMPLER_SET[108]: 1030  LLC: 2048
SAMPLER_SET[108]: 1030
Assign SAMPLER_SET[109]: 19  LLC: 2048
SAMPLER_SET[109]: 19
Assign SAMPLER_SET[110]: 920  LLC: 2048
Assign SAMPLER_SET[110]: 329  LLC: 2048
SAMPLER_SET[110]: 329
Assign SAMPLER_SET[111]: 1714  LLC: 2048
SAMPLER_SET[111]: 1714
Assign SAMPLER_SET[112]: 1  LLC: 2048
SAMPLER_SET[112]: 1
Assign SAMPLER_SET[113]: 1822  LLC: 2048
SAMPLER_SET[113]: 1822
Assign SAMPLER_SET[114]: 172  LLC: 2048
SAMPLER_SET[114]: 172
Assign SAMPLER_SET[115]: 1586  LLC: 2048
SAMPLER_SET[115]: 1586
Assign SAMPLER_SET[116]: 648  LLC: 2048
SAMPLER_SET[116]: 648
Assign SAMPLER_SET[117]: 1329  LLC: 2048
SAMPLER_SET[117]: 1329
Assign SAMPLER_SET[118]: 668  LLC: 2048
SAMPLER_SET[118]: 668
Assign SAMPLER_SET[119]: 1874  LLC: 2048
SAMPLER_SET[119]: 1874
Assign SAMPLER_SET[120]: 70  LLC: 2048
SAMPLER_SET[120]: 70
Assign SAMPLER_SET[121]: 661  LLC: 2048
SAMPLER_SET[121]: 661
Assign SAMPLER_SET[122]: 1649  LLC: 2048
SAMPLER_SET[122]: 1649
Assign SAMPLER_SET[123]: 1590  LLC: 2048
SAMPLER_SET[123]: 1590
Assign SAMPLER_SET[124]: 911  LLC: 2048
SAMPLER_SET[124]: 911
Assign SAMPLER_SET[125]: 1367  LLC: 2048
SAMPLER_SET[125]: 1367
Assign SAMPLER_SET[126]: 1782  LLC: 2048
SAMPLER_SET[126]: 1782
Assign SAMPLER_SET[127]: 569  LLC: 2048
SAMPLER_SET[127]: 569
Assign SAMPLER_SET[128]: 1309  LLC: 2048
SAMPLER_SET[128]: 1309
Assign SAMPLER_SET[129]: 534  LLC: 2048
SAMPLER_SET[129]: 534
Assign SAMPLER_SET[130]: 1274  LLC: 2048
SAMPLER_SET[130]: 1274
Assign SAMPLER_SET[131]: 904  LLC: 2048
SAMPLER_SET[131]: 904
Assign SAMPLER_SET[132]: 1908  LLC: 2048
SAMPLER_SET[132]: 1908
Assign SAMPLER_SET[133]: 245  LLC: 2048
SAMPLER_SET[133]: 245
Assign SAMPLER_SET[134]: 1688  LLC: 2048
SAMPLER_SET[134]: 1688
Assign SAMPLER_SET[135]: 1660  LLC: 2048
SAMPLER_SET[135]: 1660
Assign SAMPLER_SET[136]: 1303  LLC: 2048
SAMPLER_SET[136]: 1303
Assign SAMPLER_SET[137]: 1628  LLC: 2048
SAMPLER_SET[137]: 1628
Assign SAMPLER_SET[138]: 1857  LLC: 2048
SAMPLER_SET[138]: 1857
Assign SAMPLER_SET[139]: 187  LLC: 2048
SAMPLER_SET[139]: 187
Assign SAMPLER_SET[140]: 1389  LLC: 2048
SAMPLER_SET[140]: 1389
Assign SAMPLER_SET[141]: 881  LLC: 2048
SAMPLER_SET[141]: 881
Assign SAMPLER_SET[142]: 1166  LLC: 2048
Assign SAMPLER_SET[142]: 1039  LLC: 2048
SAMPLER_SET[142]: 1039
Assign SAMPLER_SET[143]: 1136  LLC: 2048
SAMPLER_SET[143]: 1136
Assign SAMPLER_SET[144]: 601  LLC: 2048
SAMPLER_SET[144]: 601
Assign SAMPLER_SET[145]: 967  LLC: 2048
SAMPLER_SET[145]: 967
Assign SAMPLER_SET[146]: 769  LLC: 2048
SAMPLER_SET[146]: 769
Assign SAMPLER_SET[147]: 283  LLC: 2048
SAMPLER_SET[147]: 283
Assign SAMPLER_SET[148]: 559  LLC: 2048
SAMPLER_SET[148]: 559
Assign SAMPLER_SET[149]: 1075  LLC: 2048
SAMPLER_SET[149]: 1075
Assign SAMPLER_SET[150]: 829  LLC: 2048
SAMPLER_SET[150]: 829
Assign SAMPLER_SET[151]: 1681  LLC: 2048
SAMPLER_SET[151]: 1681
Assign SAMPLER_SET[152]: 1728  LLC: 2048
SAMPLER_SET[152]: 1728
Assign SAMPLER_SET[153]: 541  LLC: 2048
SAMPLER_SET[153]: 541
Assign SAMPLER_SET[154]: 421  LLC: 2048
SAMPLER_SET[154]: 421
Assign SAMPLER_SET[155]: 1037  LLC: 2048
SAMPLER_SET[155]: 1037
Assign SAMPLER_SET[156]: 13  LLC: 2048
SAMPLER_SET[156]: 13
Assign SAMPLER_SET[157]: 1707  LLC: 2048
SAMPLER_SET[157]: 1707
Assign SAMPLER_SET[158]: 1075  LLC: 2048
Assign SAMPLER_SET[158]: 1933  LLC: 2048
SAMPLER_SET[158]: 1933
Assign SAMPLER_SET[159]: 1406  LLC: 2048
SAMPLER_SET[159]: 1406
Assign SAMPLER_SET[160]: 94  LLC: 2048
SAMPLER_SET[160]: 94
Assign SAMPLER_SET[161]: 1423  LLC: 2048
SAMPLER_SET[161]: 1423
Assign SAMPLER_SET[162]: 1854  LLC: 2048
SAMPLER_SET[162]: 1854
Assign SAMPLER_SET[163]: 230  LLC: 2048
SAMPLER_SET[163]: 230
Assign SAMPLER_SET[164]: 104  LLC: 2048
SAMPLER_SET[164]: 104
Assign SAMPLER_SET[165]: 1652  LLC: 2048
SAMPLER_SET[165]: 1652
Assign SAMPLER_SET[166]: 1446  LLC: 2048
SAMPLER_SET[166]: 1446
Assign SAMPLER_SET[167]: 1338  LLC: 2048
SAMPLER_SET[167]: 1338
Assign SAMPLER_SET[168]: 177  LLC: 2048
SAMPLER_SET[168]: 177
Assign SAMPLER_SET[169]: 195  LLC: 2048
SAMPLER_SET[169]: 195
Assign SAMPLER_SET[170]: 1171  LLC: 2048
SAMPLER_SET[170]: 1171
Assign SAMPLER_SET[171]: 1297  LLC: 2048
SAMPLER_SET[171]: 1297
Assign SAMPLER_SET[172]: 1704  LLC: 2048
SAMPLER_SET[172]: 1704
Assign SAMPLER_SET[173]: 100  LLC: 2048
SAMPLER_SET[173]: 100
Assign SAMPLER_SET[174]: 711  LLC: 2048
SAMPLER_SET[174]: 711
Assign SAMPLER_SET[175]: 1243  LLC: 2048
SAMPLER_SET[175]: 1243
Assign SAMPLER_SET[176]: 1738  LLC: 2048
SAMPLER_SET[176]: 1738
Assign SAMPLER_SET[177]: 1504  LLC: 2048
SAMPLER_SET[177]: 1504
Assign SAMPLER_SET[178]: 96  LLC: 2048
SAMPLER_SET[178]: 96
Assign SAMPLER_SET[179]: 1249  LLC: 2048
SAMPLER_SET[179]: 1249
Assign SAMPLER_SET[180]: 1267  LLC: 2048
SAMPLER_SET[180]: 1267
Assign SAMPLER_SET[181]: 1727  LLC: 2048
SAMPLER_SET[181]: 1727
Assign SAMPLER_SET[182]: 1545  LLC: 2048
SAMPLER_SET[182]: 1545
Assign SAMPLER_SET[183]: 1792  LLC: 2048
SAMPLER_SET[183]: 1792
Assign SAMPLER_SET[184]: 1383  LLC: 2048
SAMPLER_SET[184]: 1383
Assign SAMPLER_SET[185]: 1954  LLC: 2048
SAMPLER_SET[185]: 1954
Assign SAMPLER_SET[186]: 739  LLC: 2048
SAMPLER_SET[186]: 739
Assign SAMPLER_SET[187]: 1061  LLC: 2048
SAMPLER_SET[187]: 1061
Assign SAMPLER_SET[188]: 672  LLC: 2048
SAMPLER_SET[188]: 672
Assign SAMPLER_SET[189]: 1057  LLC: 2048
SAMPLER_SET[189]: 1057
Assign SAMPLER_SET[190]: 1329  LLC: 2048
Assign SAMPLER_SET[190]: 1415  LLC: 2048
SAMPLER_SET[190]: 1415
Assign SAMPLER_SET[191]: 981  LLC: 2048
SAMPLER_SET[191]: 981
Assign SAMPLER_SET[192]: 98  LLC: 2048
SAMPLER_SET[192]: 98
Assign SAMPLER_SET[193]: 453  LLC: 2048
SAMPLER_SET[193]: 453
Assign SAMPLER_SET[194]: 1448  LLC: 2048
SAMPLER_SET[194]: 1448
Assign SAMPLER_SET[195]: 79  LLC: 2048
SAMPLER_SET[195]: 79
Assign SAMPLER_SET[196]: 126  LLC: 2048
SAMPLER_SET[196]: 126
Assign SAMPLER_SET[197]: 1582  LLC: 2048
SAMPLER_SET[197]: 1582
Assign SAMPLER_SET[198]: 1289  LLC: 2048
SAMPLER_SET[198]: 1289
Assign SAMPLER_SET[199]: 875  LLC: 2048
SAMPLER_SET[199]: 875
Assign SAMPLER_SET[200]: 404  LLC: 2048
SAMPLER_SET[200]: 404
Assign SAMPLER_SET[201]: 415  LLC: 2048
SAMPLER_SET[201]: 415
Assign SAMPLER_SET[202]: 1712  LLC: 2048
SAMPLER_SET[202]: 1712
Assign SAMPLER_SET[203]: 1389  LLC: 2048
Assign SAMPLER_SET[203]: 169  LLC: 2048
SAMPLER_SET[203]: 169
Assign SAMPLER_SET[204]: 158  LLC: 2048
SAMPLER_SET[204]: 158
Assign SAMPLER_SET[205]: 90  LLC: 2048
SAMPLER_SET[205]: 90
Assign SAMPLER_SET[206]: 1291  LLC: 2048
SAMPLER_SET[206]: 1291
Assign SAMPLER_SET[207]: 838  LLC: 2048
SAMPLER_SET[207]: 838
Assign SAMPLER_SET[208]: 1904  LLC: 2048
SAMPLER_SET[208]: 1904
Assign SAMPLER_SET[209]: 640  LLC: 2048
SAMPLER_SET[209]: 640
Assign SAMPLER_SET[210]: 1462  LLC: 2048
SAMPLER_SET[210]: 1462
Assign SAMPLER_SET[211]: 1487  LLC: 2048
SAMPLER_SET[211]: 1487
Assign SAMPLER_SET[212]: 1863  LLC: 2048
SAMPLER_SET[212]: 1863
Assign SAMPLER_SET[213]: 1036  LLC: 2048
SAMPLER_SET[213]: 1036
Assign SAMPLER_SET[214]: 1702  LLC: 2048
Assign SAMPLER_SET[214]: 933  LLC: 2048
SAMPLER_SET[214]: 933
Assign SAMPLER_SET[215]: 554  LLC: 2048
SAMPLER_SET[215]: 554
Assign SAMPLER_SET[216]: 1496  LLC: 2048
SAMPLER_SET[216]: 1496
Assign SAMPLER_SET[217]: 1708  LLC: 2048
SAMPLER_SET[217]: 1708
Assign SAMPLER_SET[218]: 1275  LLC: 2048
Assign SAMPLER_SET[218]: 416  LLC: 2048
SAMPLER_SET[218]: 416
Assign SAMPLER_SET[219]: 491  LLC: 2048
SAMPLER_SET[219]: 491
Assign SAMPLER_SET[220]: 183  LLC: 2048
SAMPLER_SET[220]: 183
Assign SAMPLER_SET[221]: 1657  LLC: 2048
SAMPLER_SET[221]: 1657
Assign SAMPLER_SET[222]: 1060  LLC: 2048
SAMPLER_SET[222]: 1060
Assign SAMPLER_SET[223]: 626  LLC: 2048
SAMPLER_SET[223]: 626
Assign SAMPLER_SET[224]: 1315  LLC: 2048
SAMPLER_SET[224]: 1315
Assign SAMPLER_SET[225]: 1682  LLC: 2048
SAMPLER_SET[225]: 1682
Assign SAMPLER_SET[226]: 1352  LLC: 2048
SAMPLER_SET[226]: 1352
Assign SAMPLER_SET[227]: 1152  LLC: 2048
SAMPLER_SET[227]: 1152
Assign SAMPLER_SET[228]: 965  LLC: 2048
SAMPLER_SET[228]: 965
Assign SAMPLER_SET[229]: 1190  LLC: 2048
SAMPLER_SET[229]: 1190
Assign SAMPLER_SET[230]: 1191  LLC: 2048
SAMPLER_SET[230]: 1191
Assign SAMPLER_SET[231]: 645  LLC: 2048
SAMPLER_SET[231]: 645
Assign SAMPLER_SET[232]: 695  LLC: 2048
SAMPLER_SET[232]: 695
Assign SAMPLER_SET[233]: 1495  LLC: 2048
SAMPLER_SET[233]: 1495
Assign SAMPLER_SET[234]: 1932  LLC: 2048
SAMPLER_SET[234]: 1932
Assign SAMPLER_SET[235]: 656  LLC: 2048
SAMPLER_SET[235]: 656
Assign SAMPLER_SET[236]: 1508  LLC: 2048
SAMPLER_SET[236]: 1508
Assign SAMPLER_SET[237]: 939  LLC: 2048
SAMPLER_SET[237]: 939
Assign SAMPLER_SET[238]: 355  LLC: 2048
SAMPLER_SET[238]: 355
Assign SAMPLER_SET[239]: 1092  LLC: 2048
SAMPLER_SET[239]: 1092
Assign SAMPLER_SET[240]: 850  LLC: 2048
SAMPLER_SET[240]: 850
Assign SAMPLER_SET[241]: 102  LLC: 2048
SAMPLER_SET[241]: 102
Assign SAMPLER_SET[242]: 1763  LLC: 2048
SAMPLER_SET[242]: 1763
Assign SAMPLER_SET[243]: 668  LLC: 2048
Assign SAMPLER_SET[243]: 51  LLC: 2048
SAMPLER_SET[243]: 51
Assign SAMPLER_SET[244]: 1317  LLC: 2048
SAMPLER_SET[244]: 1317
Assign SAMPLER_SET[245]: 2041  LLC: 2048
SAMPLER_SET[245]: 2041
Assign SAMPLER_SET[246]: 1374  LLC: 2048
SAMPLER_SET[246]: 1374
Assign SAMPLER_SET[247]: 682  LLC: 2048
SAMPLER_SET[247]: 682
Assign SAMPLER_SET[248]: 1466  LLC: 2048
SAMPLER_SET[248]: 1466
Assign SAMPLER_SET[249]: 1139  LLC: 2048
SAMPLER_SET[249]: 1139
Assign SAMPLER_SET[250]: 1632  LLC: 2048
SAMPLER_SET[250]: 1632
Assign SAMPLER_SET[251]: 1117  LLC: 2048
SAMPLER_SET[251]: 1117
Assign SAMPLER_SET[252]: 1611  LLC: 2048
SAMPLER_SET[252]: 1611
Assign SAMPLER_SET[253]: 1905  LLC: 2048
SAMPLER_SET[253]: 1905
Assign SAMPLER_SET[254]: 1662  LLC: 2048
Assign SAMPLER_SET[254]: 446  LLC: 2048
SAMPLER_SET[254]: 446
Assign SAMPLER_SET[255]: 1705  LLC: 2048
SAMPLER_SET[255]: 1705
Heartbeat CPU 0 instructions: 10000003 cycles: 4649870 heartbeat IPC: 2.1506 cumulative IPC: 2.1506 (Simulation time: 0 hr 0 min 25 sec) 
Heartbeat CPU 0 instructions: 20000003 cycles: 9296119 heartbeat IPC: 2.15227 cumulative IPC: 2.15144 (Simulation time: 0 hr 0 min 49 sec) 
Heartbeat CPU 0 instructions: 30000001 cycles: 13960923 heartbeat IPC: 2.14371 cumulative IPC: 2.14886 (Simulation time: 0 hr 1 min 13 sec) 
Heartbeat CPU 0 instructions: 40000002 cycles: 18612365 heartbeat IPC: 2.14987 cumulative IPC: 2.14911 (Simulation time: 0 hr 1 min 37 sec) 
Heartbeat CPU 0 instructions: 50000001 cycles: 23258742 heartbeat IPC: 2.15221 cumulative IPC: 2.14973 (Simulation time: 0 hr 2 min 1 sec) 
Heartbeat CPU 0 instructions: 60000000 cycles: 27917118 heartbeat IPC: 2.14667 cumulative IPC: 2.14922 (Simulation time: 0 hr 2 min 25 sec) 
Heartbeat CPU 0 instructions: 70000001 cycles: 32574906 heartbeat IPC: 2.14694 cumulative IPC: 2.14889 (Simulation time: 0 hr 2 min 49 sec) 
Heartbeat CPU 0 instructions: 80000001 cycles: 37239030 heartbeat IPC: 2.14403 cumulative IPC: 2.14828 (Simulation time: 0 hr 3 min 13 sec) 
Heartbeat CPU 0 instructions: 90000003 cycles: 41905503 heartbeat IPC: 2.14295 cumulative IPC: 2.14769 (Simulation time: 0 hr 3 min 37 sec) 
Heartbeat CPU 0 instructions: 100000000 cycles: 46546202 heartbeat IPC: 2.15485 cumulative IPC: 2.1484 (Simulation time: 0 hr 4 min 1 sec) 

Warmup complete CPU 0 instructions: 100000004 cycles: 46546203 (Simulation time: 0 hr 4 min 1 sec) 

Heartbeat CPU 0 instructions: 110000000 cycles: 58832842 heartbeat IPC: 0.813892 cumulative IPC: 0.813892 (Simulation time: 0 hr 4 min 18 sec) 
Heartbeat CPU 0 instructions: 120000001 cycles: 76020016 heartbeat IPC: 0.581829 cumulative IPC: 0.678568 (Simulation time: 0 hr 4 min 38 sec) 
Heartbeat CPU 0 instructions: 130000000 cycles: 88461239 heartbeat IPC: 0.803779 cumulative IPC: 0.715734 (Simulation time: 0 hr 4 min 55 sec) 
Heartbeat CPU 0 instructions: 140000000 cycles: 100820823 heartbeat IPC: 0.809089 cumulative IPC: 0.736993 (Simulation time: 0 hr 5 min 11 sec) 
Heartbeat CPU 0 instructions: 150000001 cycles: 113128834 heartbeat IPC: 0.812479 cumulative IPC: 0.750947 (Simulation time: 0 hr 5 min 28 sec) 
Heartbeat CPU 0 instructions: 160000002 cycles: 125502138 heartbeat IPC: 0.808192 cumulative IPC: 0.759917 (Simulation time: 0 hr 5 min 45 sec) 
Heartbeat CPU 0 instructions: 170000001 cycles: 137938385 heartbeat IPC: 0.804101 cumulative IPC: 0.76593 (Simulation time: 0 hr 6 min 2 sec) 
Heartbeat CPU 0 instructions: 180000000 cycles: 150325637 heartbeat IPC: 0.807281 cumulative IPC: 0.770866 (Simulation time: 0 hr 6 min 19 sec) 
Heartbeat CPU 0 instructions: 190000002 cycles: 162710409 heartbeat IPC: 0.807443 cumulative IPC: 0.774765 (Simulation time: 0 hr 6 min 35 sec) 
Heartbeat CPU 0 instructions: 200000000 cycles: 175076105 heartbeat IPC: 0.808689 cumulative IPC: 0.778029 (Simulation time: 0 hr 6 min 52 sec) 
Heartbeat CPU 0 instructions: 210000001 cycles: 187358177 heartbeat IPC: 0.814195 cumulative IPC: 0.781184 (Simulation time: 0 hr 7 min 9 sec) 
Heartbeat CPU 0 instructions: 220000000 cycles: 199728642 heartbeat IPC: 0.808377 cumulative IPC: 0.78338 (Simulation time: 0 hr 7 min 26 sec) 
Heartbeat CPU 0 instructions: 230000000 cycles: 212126767 heartbeat IPC: 0.806574 cumulative IPC: 0.785116 (Simulation time: 0 hr 7 min 42 sec) 
Heartbeat CPU 0 instructions: 240000001 cycles: 224510257 heartbeat IPC: 0.807527 cumulative IPC: 0.786676 (Simulation time: 0 hr 7 min 59 sec) 
Heartbeat CPU 0 instructions: 250000002 cycles: 236852260 heartbeat IPC: 0.810241 cumulative IPC: 0.788204 (Simulation time: 0 hr 8 min 16 sec) 
Heartbeat CPU 0 instructions: 260000000 cycles: 249166433 heartbeat IPC: 0.812072 cumulative IPC: 0.789655 (Simulation time: 0 hr 8 min 32 sec) 
Heartbeat CPU 0 instructions: 270000000 cycles: 261509419 heartbeat IPC: 0.810177 cumulative IPC: 0.790833 (Simulation time: 0 hr 8 min 49 sec) 
Heartbeat CPU 0 instructions: 280000000 cycles: 273847892 heartbeat IPC: 0.810473 cumulative IPC: 0.791899 (Simulation time: 0 hr 9 min 6 sec) 
Heartbeat CPU 0 instructions: 290000000 cycles: 286098218 heartbeat IPC: 0.816305 cumulative IPC: 0.793147 (Simulation time: 0 hr 9 min 23 sec) 
Heartbeat CPU 0 instructions: 300000001 cycles: 298410487 heartbeat IPC: 0.812198 cumulative IPC: 0.794078 (Simulation time: 0 hr 9 min 39 sec) 
Heartbeat CPU 0 instructions: 310000000 cycles: 310674285 heartbeat IPC: 0.815408 cumulative IPC: 0.795069 (Simulation time: 0 hr 9 min 56 sec) 
Heartbeat CPU 0 instructions: 320000002 cycles: 322981313 heartbeat IPC: 0.812544 cumulative IPC: 0.795847 (Simulation time: 0 hr 10 min 13 sec) 
Heartbeat CPU 0 instructions: 330000000 cycles: 335229001 heartbeat IPC: 0.81648 cumulative IPC: 0.796722 (Simulation time: 0 hr 10 min 30 sec) 
Heartbeat CPU 0 instructions: 340000001 cycles: 347524201 heartbeat IPC: 0.813326 cumulative IPC: 0.7974 (Simulation time: 0 hr 10 min 46 sec) 
Heartbeat CPU 0 instructions: 350000001 cycles: 359872727 heartbeat IPC: 0.809813 cumulative IPC: 0.79789 (Simulation time: 0 hr 11 min 3 sec) 
Heartbeat CPU 0 instructions: 360000003 cycles: 372181371 heartbeat IPC: 0.812437 cumulative IPC: 0.79844 (Simulation time: 0 hr 11 min 20 sec) 
Heartbeat CPU 0 instructions: 370000002 cycles: 384449920 heartbeat IPC: 0.815092 cumulative IPC: 0.799044 (Simulation time: 0 hr 11 min 37 sec) 
Heartbeat CPU 0 instructions: 380000001 cycles: 396816325 heartbeat IPC: 0.808642 cumulative IPC: 0.799383 (Simulation time: 0 hr 11 min 54 sec) 
Heartbeat CPU 0 instructions: 390000001 cycles: 409200656 heartbeat IPC: 0.807472 cumulative IPC: 0.799659 (Simulation time: 0 hr 12 min 11 sec) 
Heartbeat CPU 0 instructions: 400000000 cycles: 421521128 heartbeat IPC: 0.811657 cumulative IPC: 0.800053 (Simulation time: 0 hr 12 min 27 sec) 
Heartbeat CPU 0 instructions: 410000001 cycles: 433789519 heartbeat IPC: 0.815103 cumulative IPC: 0.80053 (Simulation time: 0 hr 12 min 44 sec) 
Heartbeat CPU 0 instructions: 420000000 cycles: 446153502 heartbeat IPC: 0.808801 cumulative IPC: 0.800786 (Simulation time: 0 hr 13 min 1 sec) 
Heartbeat CPU 0 instructions: 430000001 cycles: 458571103 heartbeat IPC: 0.805309 cumulative IPC: 0.800922 (Simulation time: 0 hr 13 min 18 sec) 
Heartbeat CPU 0 instructions: 440000000 cycles: 470892734 heartbeat IPC: 0.811581 cumulative IPC: 0.801232 (Simulation time: 0 hr 13 min 34 sec) 
Heartbeat CPU 0 instructions: 450000002 cycles: 483261527 heartbeat IPC: 0.808486 cumulative IPC: 0.801437 (Simulation time: 0 hr 13 min 51 sec) 
Heartbeat CPU 0 instructions: 460000000 cycles: 495598244 heartbeat IPC: 0.810588 cumulative IPC: 0.801689 (Simulation time: 0 hr 14 min 8 sec) 
Heartbeat CPU 0 instructions: 470000000 cycles: 507979697 heartbeat IPC: 0.80766 cumulative IPC: 0.801849 (Simulation time: 0 hr 14 min 25 sec) 
Heartbeat CPU 0 instructions: 480000001 cycles: 520360331 heartbeat IPC: 0.807713 cumulative IPC: 0.802002 (Simulation time: 0 hr 14 min 42 sec) 
Heartbeat CPU 0 instructions: 490000000 cycles: 532535576 heartbeat IPC: 0.821339 cumulative IPC: 0.802487 (Simulation time: 0 hr 14 min 58 sec) 
Heartbeat CPU 0 instructions: 500000002 cycles: 544794622 heartbeat IPC: 0.815724 cumulative IPC: 0.802812 (Simulation time: 0 hr 15 min 15 sec) 
Heartbeat CPU 0 instructions: 510000003 cycles: 557124807 heartbeat IPC: 0.811018 cumulative IPC: 0.803011 (Simulation time: 0 hr 15 min 32 sec) 
Heartbeat CPU 0 instructions: 520000001 cycles: 569546017 heartbeat IPC: 0.805074 cumulative IPC: 0.80306 (Simulation time: 0 hr 15 min 49 sec) 
Heartbeat CPU 0 instructions: 530000002 cycles: 581914396 heartbeat IPC: 0.808513 cumulative IPC: 0.803186 (Simulation time: 0 hr 16 min 6 sec) 
Heartbeat CPU 0 instructions: 540000001 cycles: 594244176 heartbeat IPC: 0.811044 cumulative IPC: 0.803362 (Simulation time: 0 hr 16 min 23 sec) 
Heartbeat CPU 0 instructions: 550000000 cycles: 606566727 heartbeat IPC: 0.81152 cumulative IPC: 0.803542 (Simulation time: 0 hr 16 min 39 sec) 
Heartbeat CPU 0 instructions: 560000001 cycles: 618917676 heartbeat IPC: 0.809654 cumulative IPC: 0.803674 (Simulation time: 0 hr 16 min 56 sec) 
Heartbeat CPU 0 instructions: 570000001 cycles: 631264063 heartbeat IPC: 0.809954 cumulative IPC: 0.803806 (Simulation time: 0 hr 17 min 13 sec) 
Heartbeat CPU 0 instructions: 580000000 cycles: 643539662 heartbeat IPC: 0.814624 cumulative IPC: 0.804029 (Simulation time: 0 hr 17 min 30 sec) 
Heartbeat CPU 0 instructions: 590000000 cycles: 655864475 heartbeat IPC: 0.811371 cumulative IPC: 0.804177 (Simulation time: 0 hr 17 min 46 sec) 
Heartbeat CPU 0 instructions: 600000001 cycles: 668168366 heartbeat IPC: 0.812751 cumulative IPC: 0.804347 (Simulation time: 0 hr 18 min 3 sec) 
Heartbeat CPU 0 instructions: 610000002 cycles: 680506167 heartbeat IPC: 0.810517 cumulative IPC: 0.804467 (Simulation time: 0 hr 18 min 20 sec) 
Heartbeat CPU 0 instructions: 620000002 cycles: 692863074 heartbeat IPC: 0.809264 cumulative IPC: 0.804559 (Simulation time: 0 hr 18 min 37 sec) 
Heartbeat CPU 0 instructions: 630000001 cycles: 705219445 heartbeat IPC: 0.809299 cumulative IPC: 0.804648 (Simulation time: 0 hr 18 min 54 sec) 
Heartbeat CPU 0 instructions: 640000002 cycles: 717611275 heartbeat IPC: 0.806983 cumulative IPC: 0.804691 (Simulation time: 0 hr 19 min 10 sec) 
Heartbeat CPU 0 instructions: 650000001 cycles: 729960622 heartbeat IPC: 0.809759 cumulative IPC: 0.804783 (Simulation time: 0 hr 19 min 27 sec) 
Heartbeat CPU 0 instructions: 660000000 cycles: 742273739 heartbeat IPC: 0.812142 cumulative IPC: 0.804913 (Simulation time: 0 hr 19 min 44 sec) 
Heartbeat CPU 0 instructions: 670000000 cycles: 754618406 heartbeat IPC: 0.810066 cumulative IPC: 0.805003 (Simulation time: 0 hr 20 min 1 sec) 
Heartbeat CPU 0 instructions: 680000003 cycles: 766985457 heartbeat IPC: 0.8086 cumulative IPC: 0.805064 (Simulation time: 0 hr 20 min 18 sec) 
Heartbeat CPU 0 instructions: 690000000 cycles: 779320114 heartbeat IPC: 0.810724 cumulative IPC: 0.80516 (Simulation time: 0 hr 20 min 35 sec) 
Heartbeat CPU 0 instructions: 700000002 cycles: 791670797 heartbeat IPC: 0.809672 cumulative IPC: 0.805234 (Simulation time: 0 hr 20 min 51 sec) 
Heartbeat CPU 0 instructions: 710000002 cycles: 803951948 heartbeat IPC: 0.814256 cumulative IPC: 0.805381 (Simulation time: 0 hr 21 min 8 sec) 
Heartbeat CPU 0 instructions: 720000001 cycles: 816336406 heartbeat IPC: 0.807464 cumulative IPC: 0.805414 (Simulation time: 0 hr 21 min 25 sec) 
Heartbeat CPU 0 instructions: 730000000 cycles: 828702559 heartbeat IPC: 0.808659 cumulative IPC: 0.805466 (Simulation time: 0 hr 21 min 42 sec) 
Heartbeat CPU 0 instructions: 740000002 cycles: 841048078 heartbeat IPC: 0.810011 cumulative IPC: 0.805536 (Simulation time: 0 hr 21 min 59 sec) 
Heartbeat CPU 0 instructions: 750000001 cycles: 853421015 heartbeat IPC: 0.808215 cumulative IPC: 0.805577 (Simulation time: 0 hr 22 min 15 sec) 
Heartbeat CPU 0 instructions: 760000002 cycles: 865768471 heartbeat IPC: 0.809884 cumulative IPC: 0.805642 (Simulation time: 0 hr 22 min 32 sec) 
Heartbeat CPU 0 instructions: 770000000 cycles: 878079097 heartbeat IPC: 0.812306 cumulative IPC: 0.805741 (Simulation time: 0 hr 22 min 49 sec) 
Heartbeat CPU 0 instructions: 780000000 cycles: 890445970 heartbeat IPC: 0.808612 cumulative IPC: 0.805783 (Simulation time: 0 hr 23 min 6 sec) 
Heartbeat CPU 0 instructions: 790000000 cycles: 902745161 heartbeat IPC: 0.813062 cumulative IPC: 0.805887 (Simulation time: 0 hr 23 min 23 sec) 
Heartbeat CPU 0 instructions: 800000001 cycles: 915070547 heartbeat IPC: 0.811334 cumulative IPC: 0.805965 (Simulation time: 0 hr 23 min 39 sec) 
Heartbeat CPU 0 instructions: 810000001 cycles: 927380115 heartbeat IPC: 0.812376 cumulative IPC: 0.806054 (Simulation time: 0 hr 23 min 56 sec) 
Heartbeat CPU 0 instructions: 820000000 cycles: 939724454 heartbeat IPC: 0.810088 cumulative IPC: 0.80611 (Simulation time: 0 hr 24 min 13 sec) 
Heartbeat CPU 0 instructions: 830000000 cycles: 952021355 heartbeat IPC: 0.813213 cumulative IPC: 0.806207 (Simulation time: 0 hr 24 min 30 sec) 
Heartbeat CPU 0 instructions: 840000001 cycles: 964283318 heartbeat IPC: 0.81553 cumulative IPC: 0.806331 (Simulation time: 0 hr 24 min 46 sec) 
Heartbeat CPU 0 instructions: 850000000 cycles: 976598930 heartbeat IPC: 0.811977 cumulative IPC: 0.806406 (Simulation time: 0 hr 25 min 3 sec) 
Heartbeat CPU 0 instructions: 860000000 cycles: 988899793 heartbeat IPC: 0.812951 cumulative IPC: 0.806491 (Simulation time: 0 hr 25 min 20 sec) 
Heartbeat CPU 0 instructions: 870000002 cycles: 1001233109 heartbeat IPC: 0.810812 cumulative IPC: 0.806547 (Simulation time: 0 hr 25 min 37 sec) 
Heartbeat CPU 0 instructions: 880000000 cycles: 1013572287 heartbeat IPC: 0.810427 cumulative IPC: 0.806597 (Simulation time: 0 hr 25 min 54 sec) 
Heartbeat CPU 0 instructions: 890000002 cycles: 1025805336 heartbeat IPC: 0.817458 cumulative IPC: 0.806732 (Simulation time: 0 hr 26 min 11 sec) 
Heartbeat CPU 0 instructions: 900000002 cycles: 1038006653 heartbeat IPC: 0.819584 cumulative IPC: 0.80689 (Simulation time: 0 hr 26 min 27 sec) 
Heartbeat CPU 0 instructions: 910000001 cycles: 1050242009 heartbeat IPC: 0.817303 cumulative IPC: 0.807017 (Simulation time: 0 hr 26 min 44 sec) 
Heartbeat CPU 0 instructions: 920000001 cycles: 1062555829 heartbeat IPC: 0.812096 cumulative IPC: 0.807079 (Simulation time: 0 hr 27 min 1 sec) 
Heartbeat CPU 0 instructions: 930000002 cycles: 1074883761 heartbeat IPC: 0.811166 cumulative IPC: 0.807128 (Simulation time: 0 hr 27 min 18 sec) 
Heartbeat CPU 0 instructions: 940000000 cycles: 1087111915 heartbeat IPC: 0.817785 cumulative IPC: 0.807253 (Simulation time: 0 hr 27 min 35 sec) 
Heartbeat CPU 0 instructions: 950000000 cycles: 1099350721 heartbeat IPC: 0.817073 cumulative IPC: 0.807367 (Simulation time: 0 hr 27 min 52 sec) 
Heartbeat CPU 0 instructions: 960000001 cycles: 1116510244 heartbeat IPC: 0.582767 cumulative IPC: 0.803765 (Simulation time: 0 hr 28 min 12 sec) 
Heartbeat CPU 0 instructions: 970000000 cycles: 1128771327 heartbeat IPC: 0.815589 cumulative IPC: 0.803899 (Simulation time: 0 hr 28 min 29 sec) 
Heartbeat CPU 0 instructions: 980000002 cycles: 1140999424 heartbeat IPC: 0.817789 cumulative IPC: 0.804054 (Simulation time: 0 hr 28 min 46 sec) 
Heartbeat CPU 0 instructions: 990000000 cycles: 1153236553 heartbeat IPC: 0.817185 cumulative IPC: 0.8042 (Simulation time: 0 hr 29 min 3 sec) 
Heartbeat CPU 0 instructions: 1000000000 cycles: 1165511450 heartbeat IPC: 0.814671 cumulative IPC: 0.804314 (Simulation time: 0 hr 29 min 19 sec) 
Heartbeat CPU 0 instructions: 1010000002 cycles: 1177741023 heartbeat IPC: 0.81769 cumulative IPC: 0.804459 (Simulation time: 0 hr 29 min 36 sec) 
Heartbeat CPU 0 instructions: 1020000001 cycles: 1189963900 heartbeat IPC: 0.818138 cumulative IPC: 0.804605 (Simulation time: 0 hr 29 min 53 sec) 
Heartbeat CPU 0 instructions: 1030000000 cycles: 1202198574 heartbeat IPC: 0.817349 cumulative IPC: 0.80474 (Simulation time: 0 hr 30 min 9 sec) 
Heartbeat CPU 0 instructions: 1040000003 cycles: 1214428092 heartbeat IPC: 0.817694 cumulative IPC: 0.804876 (Simulation time: 0 hr 30 min 26 sec) 
Heartbeat CPU 0 instructions: 1050000003 cycles: 1226732816 heartbeat IPC: 0.812696 cumulative IPC: 0.804957 (Simulation time: 0 hr 30 min 43 sec) 
Heartbeat CPU 0 instructions: 1060000001 cycles: 1238944274 heartbeat IPC: 0.818903 cumulative IPC: 0.8051 (Simulation time: 0 hr 31 min 0 sec) 
Heartbeat CPU 0 instructions: 1070000000 cycles: 1251178323 heartbeat IPC: 0.817391 cumulative IPC: 0.805225 (Simulation time: 0 hr 31 min 16 sec) 
Heartbeat CPU 0 instructions: 1080000001 cycles: 1263444399 heartbeat IPC: 0.815257 cumulative IPC: 0.805326 (Simulation time: 0 hr 31 min 33 sec) 
Heartbeat CPU 0 instructions: 1090000000 cycles: 1275731606 heartbeat IPC: 0.813855 cumulative IPC: 0.805411 (Simulation time: 0 hr 31 min 50 sec) 
Heartbeat CPU 0 instructions: 1100000000 cycles: 1287927505 heartbeat IPC: 0.819948 cumulative IPC: 0.805554 (Simulation time: 0 hr 32 min 7 sec) 
Finished CPU 0 instructions: 1000000000 cycles: 1241381311 cumulative IPC: 0.805554 (Simulation time: 0 hr 32 min 7 sec) 

ChampSim completed all CPUs

Region of Interest Statistics

CPU 0 cumulative IPC: 0.805554 instructions: 1000000000 cycles: 1241381311
L1D TOTAL     ACCESS:  316208899  HIT:  313252997  MISS:    2955902
L1D LOAD      ACCESS:  201705535  HIT:  199103264  MISS:    2602271
L1D RFO       ACCESS:  114503364  HIT:  114149733  MISS:     353631
L1D PREFETCH  ACCESS:          0  HIT:          0  MISS:          0
L1D WRITEBACK ACCESS:          0  HIT:          0  MISS:          0
L1D PREFETCH  REQUESTED:          0  ISSUED:          0  USEFUL:          0  USELESS:          0
L1D AVERAGE MISS LATENCY: 19.707 cycles
L1I TOTAL     ACCESS:  183737211  HIT:  183680593  MISS:      56618
L1I LOAD      ACCESS:  183737211  HIT:  183680593  MISS:      56618
L1I RFO       ACCESS:          0  HIT:          0  MISS:          0
L1I PREFETCH  ACCESS:          0  HIT:          0  MISS:          0
L1I WRITEBACK ACCESS:          0  HIT:          0  MISS:          0
L1I PREFETCH  REQUESTED:          0  ISSUED:          0  USEFUL:          0  USELESS:          0
L1I AVERAGE MISS LATENCY: 18.8523 cycles
L2C TOTAL     ACCESS:    3594696  HIT:    3392895  MISS:     201801
L2C LOAD      ACCESS:    2658730  HIT:    2526021  MISS:     132709
L2C RFO       ACCESS:     353624  HIT:     284583  MISS:      69041
L2C PREFETCH  ACCESS:          0  HIT:          0  MISS:          0
L2C WRITEBACK ACCESS:     582342  HIT:     582291  MISS:         51
L2C PREFETCH  REQUESTED:          0  ISSUED:          0  USEFUL:          0  USELESS:          0
L2C AVERAGE MISS LATENCY: 114.412 cycles
LLC TOTAL     ACCESS:     278401  HIT:     159998  MISS:     118403
LLC LOAD      ACCESS:     132709  HIT:      86397  MISS:      46312
LLC RFO       ACCESS:      69038  HIT:      18010  MISS:      51028
LLC PREFETCH  ACCESS:          0  HIT:          0  MISS:          0
LLC WRITEBACK ACCESS:      76654  HIT:      55591  MISS:      21063
LLC PREFETCH  REQUESTED:          0  ISSUED:          0  USEFUL:          0  USELESS:          0
LLC AVERAGE MISS LATENCY: 126.538 cycles
Major fault: 0 Minor fault: 1740
==============================
Perceptron RRIP Stats:
   Num Updates:          23723
   Num Primary Trains:   1114
   Num Secondary Trains: 1116
==============================
primary_perceptron #0: -4 -2 4 0 0 -4 0 -2 0 -2 0 0 2 0 -2 -10 
secondary_perceptron #0: -4 -2 4 2 -4 -4 0 -4 -2 -2 0 2 2 0 0 4 0 4 2 -2 -12 


DRAM Statistics
 CHANNEL 0
 RQ ROW_BUFFER_HIT:      39505  ROW_BUFFER_MISS:      57795
 DBUS_CONGESTED:      27639
 WQ ROW_BUFFER_HIT:      16476  ROW_BUFFER_MISS:      18404  FULL:        343

 AVG_CONGESTED_CYCLE: 6

CPU 0 Branch Prediction Accuracy: 87.4973% MPKI: 20.452 Average ROB Occupancy at Mispredict: 22.7015

Branch types
NOT_BRANCH: 836419616 83.642%
BRANCH_DIRECT_JUMP: 5445299 0.54453%
BRANCH_INDIRECT: 6861 0.0006861%
BRANCH_CONDITIONAL: 99292811 9.92928%
BRANCH_DIRECT_CALL: 29417492 2.94175%
BRANCH_INDIRECT_CALL: 78 7.8e-06%
BRANCH_RETURN: 29417568 2.94176%
BRANCH_OTHER: 0 0%

