
*** ChampSim Multicore Out-of-Order Simulator ***

Warmup Instructions: 100000000
Simulation Instructions: 1000000000
Number of CPUs: 1
LLC sets: 2048
LLC ways: 16
Off-chip DRAM Size: 4096 MB Channels: 1 Width: 64-bit Data Rate: 3200 MT/s

CPU 0 runs /scratch/user/kevin.weston/dpc3-traces/641.champsimtrace.xz
CPU 0 Bimodal branch predictor
Initialize SHIP state
Assign rand_sets[0]: 454  LLC: 2048
rand_sets[0]: 454
Assign rand_sets[1]: 1662  LLC: 2048
rand_sets[1]: 1662
Assign rand_sets[2]: 1921  LLC: 2048
rand_sets[2]: 1921
Assign rand_sets[3]: 1131  LLC: 2048
rand_sets[3]: 1131
Assign rand_sets[4]: 331  LLC: 2048
rand_sets[4]: 331
Assign rand_sets[5]: 1531  LLC: 2048
rand_sets[5]: 1531
Assign rand_sets[6]: 482  LLC: 2048
rand_sets[6]: 482
Assign rand_sets[7]: 1275  LLC: 2048
rand_sets[7]: 1275
Assign rand_sets[8]: 1876  LLC: 2048
rand_sets[8]: 1876
Assign rand_sets[9]: 2038  LLC: 2048
rand_sets[9]: 2038
Assign rand_sets[10]: 701  LLC: 2048
rand_sets[10]: 701
Assign rand_sets[11]: 479  LLC: 2048
rand_sets[11]: 479
Assign rand_sets[12]: 892  LLC: 2048
rand_sets[12]: 892
Assign rand_sets[13]: 1820  LLC: 2048
rand_sets[13]: 1820
Assign rand_sets[14]: 1505  LLC: 2048
rand_sets[14]: 1505
Assign rand_sets[15]: 1159  LLC: 2048
rand_sets[15]: 1159
Assign rand_sets[16]: 513  LLC: 2048
rand_sets[16]: 513
Assign rand_sets[17]: 703  LLC: 2048
rand_sets[17]: 703
Assign rand_sets[18]: 561  LLC: 2048
rand_sets[18]: 561
Assign rand_sets[19]: 990  LLC: 2048
rand_sets[19]: 990
Assign rand_sets[20]: 342  LLC: 2048
rand_sets[20]: 342
Assign rand_sets[21]: 882  LLC: 2048
rand_sets[21]: 882
Assign rand_sets[22]: 15  LLC: 2048
rand_sets[22]: 15
Assign rand_sets[23]: 71  LLC: 2048
rand_sets[23]: 71
Assign rand_sets[24]: 1127  LLC: 2048
rand_sets[24]: 1127
Assign rand_sets[25]: 1382  LLC: 2048
rand_sets[25]: 1382
Assign rand_sets[26]: 647  LLC: 2048
rand_sets[26]: 647
Assign rand_sets[27]: 857  LLC: 2048
rand_sets[27]: 857
Assign rand_sets[28]: 1450  LLC: 2048
rand_sets[28]: 1450
Assign rand_sets[29]: 1160  LLC: 2048
rand_sets[29]: 1160
Assign rand_sets[30]: 1852  LLC: 2048
rand_sets[30]: 1852
Assign rand_sets[31]: 1881  LLC: 2048
rand_sets[31]: 1881
Assign rand_sets[32]: 1770  LLC: 2048
rand_sets[32]: 1770
Assign rand_sets[33]: 1622  LLC: 2048
rand_sets[33]: 1622
Assign rand_sets[34]: 275  LLC: 2048
rand_sets[34]: 275
Assign rand_sets[35]: 635  LLC: 2048
rand_sets[35]: 635
Assign rand_sets[36]: 466  LLC: 2048
rand_sets[36]: 466
Assign rand_sets[37]: 1413  LLC: 2048
rand_sets[37]: 1413
Assign rand_sets[38]: 417  LLC: 2048
rand_sets[38]: 417
Assign rand_sets[39]: 472  LLC: 2048
rand_sets[39]: 472
Assign rand_sets[40]: 1340  LLC: 2048
rand_sets[40]: 1340
Assign rand_sets[41]: 852  LLC: 2048
rand_sets[41]: 852
Assign rand_sets[42]: 1365  LLC: 2048
rand_sets[42]: 1365
Assign rand_sets[43]: 47  LLC: 2048
rand_sets[43]: 47
Assign rand_sets[44]: 823  LLC: 2048
rand_sets[44]: 823
Assign rand_sets[45]: 686  LLC: 2048
rand_sets[45]: 686
Assign rand_sets[46]: 1637  LLC: 2048
rand_sets[46]: 1637
Assign rand_sets[47]: 1115  LLC: 2048
rand_sets[47]: 1115
Assign rand_sets[48]: 986  LLC: 2048
rand_sets[48]: 986
Assign rand_sets[49]: 258  LLC: 2048
rand_sets[49]: 258
Assign rand_sets[50]: 633  LLC: 2048
rand_sets[50]: 633
Assign rand_sets[51]: 920  LLC: 2048
rand_sets[51]: 920
Assign rand_sets[52]: 204  LLC: 2048
rand_sets[52]: 204
Assign rand_sets[53]: 227  LLC: 2048
rand_sets[53]: 227
Assign rand_sets[54]: 1818  LLC: 2048
rand_sets[54]: 1818
Assign rand_sets[55]: 886  LLC: 2048
rand_sets[55]: 886
Assign rand_sets[56]: 1422  LLC: 2048
rand_sets[56]: 1422
Assign rand_sets[57]: 607  LLC: 2048
rand_sets[57]: 607
Assign rand_sets[58]: 217  LLC: 2048
rand_sets[58]: 217
Assign rand_sets[59]: 1945  LLC: 2048
rand_sets[59]: 1945
Assign rand_sets[60]: 143  LLC: 2048
rand_sets[60]: 143
Assign rand_sets[61]: 1311  LLC: 2048
rand_sets[61]: 1311
Assign rand_sets[62]: 319  LLC: 2048
rand_sets[62]: 319
Assign rand_sets[63]: 1846  LLC: 2048
rand_sets[63]: 1846
Assign rand_sets[64]: 238  LLC: 2048
rand_sets[64]: 238
Assign rand_sets[65]: 67  LLC: 2048
rand_sets[65]: 67
Assign rand_sets[66]: 1912  LLC: 2048
rand_sets[66]: 1912
Assign rand_sets[67]: 1613  LLC: 2048
rand_sets[67]: 1613
Assign rand_sets[68]: 1293  LLC: 2048
rand_sets[68]: 1293
Assign rand_sets[69]: 1018  LLC: 2048
rand_sets[69]: 1018
Assign rand_sets[70]: 1982  LLC: 2048
rand_sets[70]: 1982
Assign rand_sets[71]: 1702  LLC: 2048
rand_sets[71]: 1702
Assign rand_sets[72]: 1498  LLC: 2048
rand_sets[72]: 1498
Assign rand_sets[73]: 228  LLC: 2048
rand_sets[73]: 228
Assign rand_sets[74]: 1414  LLC: 2048
rand_sets[74]: 1414
Assign rand_sets[75]: 1166  LLC: 2048
rand_sets[75]: 1166
Assign rand_sets[76]: 732  LLC: 2048
rand_sets[76]: 732
Assign rand_sets[77]: 297  LLC: 2048
rand_sets[77]: 297
Assign rand_sets[78]: 1133  LLC: 2048
rand_sets[78]: 1133
Assign rand_sets[79]: 846  LLC: 2048
rand_sets[79]: 846
Assign rand_sets[80]: 767  LLC: 2048
rand_sets[80]: 767
Assign rand_sets[81]: 1878  LLC: 2048
rand_sets[81]: 1878
Assign rand_sets[82]: 993  LLC: 2048
rand_sets[82]: 993
Assign rand_sets[83]: 1392  LLC: 2048
rand_sets[83]: 1392
Assign rand_sets[84]: 1568  LLC: 2048
rand_sets[84]: 1568
Assign rand_sets[85]: 1787  LLC: 2048
rand_sets[85]: 1787
Assign rand_sets[86]: 399  LLC: 2048
rand_sets[86]: 399
Assign rand_sets[87]: 1201  LLC: 2048
rand_sets[87]: 1201
Assign rand_sets[88]: 856  LLC: 2048
rand_sets[88]: 856
Assign rand_sets[89]: 773  LLC: 2048
rand_sets[89]: 773
Assign rand_sets[90]: 1680  LLC: 2048
rand_sets[90]: 1680
Assign rand_sets[91]: 1477  LLC: 2048
rand_sets[91]: 1477
Assign rand_sets[92]: 9  LLC: 2048
rand_sets[92]: 9
Assign rand_sets[93]: 1500  LLC: 2048
rand_sets[93]: 1500
Assign rand_sets[94]: 851  LLC: 2048
rand_sets[94]: 851
Assign rand_sets[95]: 973  LLC: 2048
rand_sets[95]: 973
Assign rand_sets[96]: 938  LLC: 2048
rand_sets[96]: 938
Assign rand_sets[97]: 1851  LLC: 2048
rand_sets[97]: 1851
Assign rand_sets[98]: 1608  LLC: 2048
rand_sets[98]: 1608
Assign rand_sets[99]: 1945  LLC: 2048
Assign rand_sets[99]: 1106  LLC: 2048
rand_sets[99]: 1106
Assign rand_sets[100]: 979  LLC: 2048
rand_sets[100]: 979
Assign rand_sets[101]: 338  LLC: 2048
rand_sets[101]: 338
Assign rand_sets[102]: 1693  LLC: 2048
rand_sets[102]: 1693
Assign rand_sets[103]: 6  LLC: 2048
rand_sets[103]: 6
Assign rand_sets[104]: 671  LLC: 2048
rand_sets[104]: 671
Assign rand_sets[105]: 490  LLC: 2048
rand_sets[105]: 490
Assign rand_sets[106]: 1461  LLC: 2048
rand_sets[106]: 1461
Assign rand_sets[107]: 1730  LLC: 2048
rand_sets[107]: 1730
Assign rand_sets[108]: 1030  LLC: 2048
rand_sets[108]: 1030
Assign rand_sets[109]: 19  LLC: 2048
rand_sets[109]: 19
Assign rand_sets[110]: 920  LLC: 2048
Assign rand_sets[110]: 329  LLC: 2048
rand_sets[110]: 329
Assign rand_sets[111]: 1714  LLC: 2048
rand_sets[111]: 1714
Assign rand_sets[112]: 1  LLC: 2048
rand_sets[112]: 1
Assign rand_sets[113]: 1822  LLC: 2048
rand_sets[113]: 1822
Assign rand_sets[114]: 172  LLC: 2048
rand_sets[114]: 172
Assign rand_sets[115]: 1586  LLC: 2048
rand_sets[115]: 1586
Assign rand_sets[116]: 648  LLC: 2048
rand_sets[116]: 648
Assign rand_sets[117]: 1329  LLC: 2048
rand_sets[117]: 1329
Assign rand_sets[118]: 668  LLC: 2048
rand_sets[118]: 668
Assign rand_sets[119]: 1874  LLC: 2048
rand_sets[119]: 1874
Assign rand_sets[120]: 70  LLC: 2048
rand_sets[120]: 70
Assign rand_sets[121]: 661  LLC: 2048
rand_sets[121]: 661
Assign rand_sets[122]: 1649  LLC: 2048
rand_sets[122]: 1649
Assign rand_sets[123]: 1590  LLC: 2048
rand_sets[123]: 1590
Assign rand_sets[124]: 911  LLC: 2048
rand_sets[124]: 911
Assign rand_sets[125]: 1367  LLC: 2048
rand_sets[125]: 1367
Assign rand_sets[126]: 1782  LLC: 2048
rand_sets[126]: 1782
Assign rand_sets[127]: 569  LLC: 2048
rand_sets[127]: 569
Heartbeat CPU 0 instructions: 10000003 cycles: 4649878 heartbeat IPC: 2.15059 cumulative IPC: 2.15059 (Simulation time: 0 hr 0 min 25 sec) 
Heartbeat CPU 0 instructions: 20000003 cycles: 9296133 heartbeat IPC: 2.15227 cumulative IPC: 2.15143 (Simulation time: 0 hr 0 min 49 sec) 
Heartbeat CPU 0 instructions: 30000001 cycles: 13960955 heartbeat IPC: 2.1437 cumulative IPC: 2.14885 (Simulation time: 0 hr 1 min 14 sec) 
Heartbeat CPU 0 instructions: 40000002 cycles: 18612395 heartbeat IPC: 2.14987 cumulative IPC: 2.14911 (Simulation time: 0 hr 1 min 39 sec) 
Heartbeat CPU 0 instructions: 50000001 cycles: 23258788 heartbeat IPC: 2.15221 cumulative IPC: 2.14973 (Simulation time: 0 hr 2 min 3 sec) 
Heartbeat CPU 0 instructions: 60000000 cycles: 27917157 heartbeat IPC: 2.14667 cumulative IPC: 2.14922 (Simulation time: 0 hr 2 min 28 sec) 
Heartbeat CPU 0 instructions: 70000001 cycles: 32574963 heartbeat IPC: 2.14693 cumulative IPC: 2.14889 (Simulation time: 0 hr 2 min 53 sec) 
Heartbeat CPU 0 instructions: 80000001 cycles: 37239085 heartbeat IPC: 2.14403 cumulative IPC: 2.14828 (Simulation time: 0 hr 3 min 17 sec) 
Heartbeat CPU 0 instructions: 90000003 cycles: 41905531 heartbeat IPC: 2.14296 cumulative IPC: 2.14769 (Simulation time: 0 hr 3 min 42 sec) 
Heartbeat CPU 0 instructions: 100000000 cycles: 46546236 heartbeat IPC: 2.15484 cumulative IPC: 2.1484 (Simulation time: 0 hr 4 min 7 sec) 

Warmup complete CPU 0 instructions: 100000004 cycles: 46546237 (Simulation time: 0 hr 4 min 7 sec) 

Heartbeat CPU 0 instructions: 110000000 cycles: 58833979 heartbeat IPC: 0.813819 cumulative IPC: 0.813819 (Simulation time: 0 hr 4 min 24 sec) 
Heartbeat CPU 0 instructions: 120000001 cycles: 75904201 heartbeat IPC: 0.585816 cumulative IPC: 0.681246 (Simulation time: 0 hr 4 min 46 sec) 
Heartbeat CPU 0 instructions: 130000000 cycles: 88342178 heartbeat IPC: 0.803989 cumulative IPC: 0.717773 (Simulation time: 0 hr 5 min 4 sec) 
Heartbeat CPU 0 instructions: 140000000 cycles: 100701604 heartbeat IPC: 0.809099 cumulative IPC: 0.738616 (Simulation time: 0 hr 5 min 21 sec) 
Heartbeat CPU 0 instructions: 150000001 cycles: 113007628 heartbeat IPC: 0.81261 cumulative IPC: 0.752316 (Simulation time: 0 hr 5 min 39 sec) 
Heartbeat CPU 0 instructions: 160000002 cycles: 125381383 heartbeat IPC: 0.808162 cumulative IPC: 0.761082 (Simulation time: 0 hr 5 min 57 sec) 
Heartbeat CPU 0 instructions: 170000001 cycles: 137824328 heartbeat IPC: 0.803668 cumulative IPC: 0.766887 (Simulation time: 0 hr 6 min 15 sec) 
Heartbeat CPU 0 instructions: 180000000 cycles: 150208433 heartbeat IPC: 0.807487 cumulative IPC: 0.771737 (Simulation time: 0 hr 6 min 33 sec) 
Heartbeat CPU 0 instructions: 190000002 cycles: 162591172 heartbeat IPC: 0.807576 cumulative IPC: 0.775562 (Simulation time: 0 hr 6 min 51 sec) 
Heartbeat CPU 0 instructions: 200000000 cycles: 174962230 heartbeat IPC: 0.808338 cumulative IPC: 0.778719 (Simulation time: 0 hr 7 min 9 sec) 
Heartbeat CPU 0 instructions: 210000001 cycles: 187244465 heartbeat IPC: 0.814184 cumulative IPC: 0.781815 (Simulation time: 0 hr 7 min 27 sec) 
Heartbeat CPU 0 instructions: 220000000 cycles: 199616574 heartbeat IPC: 0.80827 cumulative IPC: 0.783953 (Simulation time: 0 hr 7 min 44 sec) 
Heartbeat CPU 0 instructions: 230000000 cycles: 212016789 heartbeat IPC: 0.806438 cumulative IPC: 0.785638 (Simulation time: 0 hr 8 min 2 sec) 
Heartbeat CPU 0 instructions: 240000001 cycles: 224400676 heartbeat IPC: 0.807501 cumulative IPC: 0.787161 (Simulation time: 0 hr 8 min 20 sec) 
Heartbeat CPU 0 instructions: 250000002 cycles: 236740363 heartbeat IPC: 0.810393 cumulative IPC: 0.788668 (Simulation time: 0 hr 8 min 38 sec) 
Heartbeat CPU 0 instructions: 260000000 cycles: 249054270 heartbeat IPC: 0.81209 cumulative IPC: 0.790092 (Simulation time: 0 hr 8 min 56 sec) 
Heartbeat CPU 0 instructions: 270000000 cycles: 261395974 heartbeat IPC: 0.810261 cumulative IPC: 0.791251 (Simulation time: 0 hr 9 min 14 sec) 
Heartbeat CPU 0 instructions: 280000000 cycles: 273735379 heartbeat IPC: 0.810412 cumulative IPC: 0.792291 (Simulation time: 0 hr 9 min 32 sec) 
Heartbeat CPU 0 instructions: 290000000 cycles: 285983760 heartbeat IPC: 0.816434 cumulative IPC: 0.793526 (Simulation time: 0 hr 9 min 50 sec) 
Heartbeat CPU 0 instructions: 300000001 cycles: 298294341 heartbeat IPC: 0.812309 cumulative IPC: 0.794445 (Simulation time: 0 hr 10 min 8 sec) 
Heartbeat CPU 0 instructions: 310000000 cycles: 310559601 heartbeat IPC: 0.815311 cumulative IPC: 0.795414 (Simulation time: 0 hr 10 min 26 sec) 
Heartbeat CPU 0 instructions: 320000002 cycles: 322866897 heartbeat IPC: 0.812526 cumulative IPC: 0.796176 (Simulation time: 0 hr 10 min 43 sec) 
Heartbeat CPU 0 instructions: 330000000 cycles: 335114201 heartbeat IPC: 0.816506 cumulative IPC: 0.797039 (Simulation time: 0 hr 11 min 1 sec) 
Heartbeat CPU 0 instructions: 340000001 cycles: 347409643 heartbeat IPC: 0.81331 cumulative IPC: 0.797704 (Simulation time: 0 hr 11 min 19 sec) 
Heartbeat CPU 0 instructions: 350000001 cycles: 359754154 heartbeat IPC: 0.810077 cumulative IPC: 0.798192 (Simulation time: 0 hr 11 min 37 sec) 
Heartbeat CPU 0 instructions: 360000003 cycles: 372061889 heartbeat IPC: 0.812497 cumulative IPC: 0.798733 (Simulation time: 0 hr 11 min 55 sec) 
Heartbeat CPU 0 instructions: 370000002 cycles: 384329218 heartbeat IPC: 0.815173 cumulative IPC: 0.79933 (Simulation time: 0 hr 12 min 13 sec) 
Heartbeat CPU 0 instructions: 380000001 cycles: 396692603 heartbeat IPC: 0.80884 cumulative IPC: 0.799666 (Simulation time: 0 hr 12 min 31 sec) 
Heartbeat CPU 0 instructions: 390000001 cycles: 409065423 heartbeat IPC: 0.808223 cumulative IPC: 0.799958 (Simulation time: 0 hr 12 min 49 sec) 
Heartbeat CPU 0 instructions: 400000000 cycles: 421384247 heartbeat IPC: 0.811766 cumulative IPC: 0.800346 (Simulation time: 0 hr 13 min 6 sec) 
Heartbeat CPU 0 instructions: 410000001 cycles: 433653757 heartbeat IPC: 0.815029 cumulative IPC: 0.800811 (Simulation time: 0 hr 13 min 24 sec) 
Heartbeat CPU 0 instructions: 420000000 cycles: 446015350 heartbeat IPC: 0.808957 cumulative IPC: 0.801063 (Simulation time: 0 hr 13 min 42 sec) 
Heartbeat CPU 0 instructions: 430000001 cycles: 458432042 heartbeat IPC: 0.805368 cumulative IPC: 0.801193 (Simulation time: 0 hr 14 min 0 sec) 
Heartbeat CPU 0 instructions: 440000000 cycles: 470759479 heartbeat IPC: 0.811199 cumulative IPC: 0.801484 (Simulation time: 0 hr 14 min 18 sec) 
Heartbeat CPU 0 instructions: 450000002 cycles: 483129350 heartbeat IPC: 0.808416 cumulative IPC: 0.80168 (Simulation time: 0 hr 14 min 36 sec) 
Heartbeat CPU 0 instructions: 460000000 cycles: 495468222 heartbeat IPC: 0.810447 cumulative IPC: 0.801921 (Simulation time: 0 hr 14 min 54 sec) 
Heartbeat CPU 0 instructions: 470000000 cycles: 507850671 heartbeat IPC: 0.807595 cumulative IPC: 0.802073 (Simulation time: 0 hr 15 min 11 sec) 
Heartbeat CPU 0 instructions: 480000001 cycles: 520234194 heartbeat IPC: 0.807525 cumulative IPC: 0.802216 (Simulation time: 0 hr 15 min 29 sec) 
Heartbeat CPU 0 instructions: 490000000 cycles: 532413256 heartbeat IPC: 0.821081 cumulative IPC: 0.802689 (Simulation time: 0 hr 15 min 47 sec) 
Heartbeat CPU 0 instructions: 500000002 cycles: 544672609 heartbeat IPC: 0.815704 cumulative IPC: 0.803009 (Simulation time: 0 hr 16 min 5 sec) 
Heartbeat CPU 0 instructions: 510000003 cycles: 557003587 heartbeat IPC: 0.810966 cumulative IPC: 0.803201 (Simulation time: 0 hr 16 min 23 sec) 
Heartbeat CPU 0 instructions: 520000001 cycles: 569423457 heartbeat IPC: 0.805161 cumulative IPC: 0.803248 (Simulation time: 0 hr 16 min 41 sec) 
Heartbeat CPU 0 instructions: 530000002 cycles: 581789186 heartbeat IPC: 0.808687 cumulative IPC: 0.803374 (Simulation time: 0 hr 16 min 59 sec) 
Heartbeat CPU 0 instructions: 540000001 cycles: 594119127 heartbeat IPC: 0.811034 cumulative IPC: 0.803546 (Simulation time: 0 hr 17 min 16 sec) 
Heartbeat CPU 0 instructions: 550000000 cycles: 606441414 heartbeat IPC: 0.811538 cumulative IPC: 0.803722 (Simulation time: 0 hr 17 min 34 sec) 
Heartbeat CPU 0 instructions: 560000001 cycles: 618792326 heartbeat IPC: 0.809657 cumulative IPC: 0.80385 (Simulation time: 0 hr 17 min 52 sec) 
Heartbeat CPU 0 instructions: 570000001 cycles: 631138298 heartbeat IPC: 0.809981 cumulative IPC: 0.803979 (Simulation time: 0 hr 18 min 10 sec) 
Heartbeat CPU 0 instructions: 580000000 cycles: 643413866 heartbeat IPC: 0.814626 cumulative IPC: 0.804198 (Simulation time: 0 hr 18 min 28 sec) 
Heartbeat CPU 0 instructions: 590000000 cycles: 655739254 heartbeat IPC: 0.811333 cumulative IPC: 0.804343 (Simulation time: 0 hr 18 min 46 sec) 
Heartbeat CPU 0 instructions: 600000001 cycles: 668041334 heartbeat IPC: 0.812871 cumulative IPC: 0.804512 (Simulation time: 0 hr 19 min 4 sec) 
Heartbeat CPU 0 instructions: 610000002 cycles: 680378834 heartbeat IPC: 0.810537 cumulative IPC: 0.804629 (Simulation time: 0 hr 19 min 21 sec) 
Heartbeat CPU 0 instructions: 620000002 cycles: 692736193 heartbeat IPC: 0.809234 cumulative IPC: 0.804717 (Simulation time: 0 hr 19 min 39 sec) 
Heartbeat CPU 0 instructions: 630000001 cycles: 705093197 heartbeat IPC: 0.809258 cumulative IPC: 0.804802 (Simulation time: 0 hr 19 min 57 sec) 
Heartbeat CPU 0 instructions: 640000002 cycles: 717485757 heartbeat IPC: 0.806936 cumulative IPC: 0.804842 (Simulation time: 0 hr 20 min 15 sec) 
Heartbeat CPU 0 instructions: 650000001 cycles: 729835076 heartbeat IPC: 0.809761 cumulative IPC: 0.80493 (Simulation time: 0 hr 20 min 33 sec) 
Heartbeat CPU 0 instructions: 660000000 cycles: 742148957 heartbeat IPC: 0.812092 cumulative IPC: 0.805057 (Simulation time: 0 hr 20 min 50 sec) 
Heartbeat CPU 0 instructions: 670000000 cycles: 754492539 heartbeat IPC: 0.810138 cumulative IPC: 0.805146 (Simulation time: 0 hr 21 min 8 sec) 
Heartbeat CPU 0 instructions: 680000003 cycles: 766859112 heartbeat IPC: 0.808632 cumulative IPC: 0.805206 (Simulation time: 0 hr 21 min 26 sec) 
Heartbeat CPU 0 instructions: 690000000 cycles: 779192960 heartbeat IPC: 0.810777 cumulative IPC: 0.805299 (Simulation time: 0 hr 21 min 44 sec) 
Heartbeat CPU 0 instructions: 700000002 cycles: 791544002 heartbeat IPC: 0.809648 cumulative IPC: 0.805372 (Simulation time: 0 hr 22 min 2 sec) 
Heartbeat CPU 0 instructions: 710000002 cycles: 803825560 heartbeat IPC: 0.814229 cumulative IPC: 0.805515 (Simulation time: 0 hr 22 min 19 sec) 
Heartbeat CPU 0 instructions: 720000001 cycles: 816209562 heartbeat IPC: 0.807493 cumulative IPC: 0.805547 (Simulation time: 0 hr 22 min 37 sec) 
Heartbeat CPU 0 instructions: 730000000 cycles: 828576099 heartbeat IPC: 0.808634 cumulative IPC: 0.805596 (Simulation time: 0 hr 22 min 55 sec) 
Heartbeat CPU 0 instructions: 740000002 cycles: 840921932 heartbeat IPC: 0.80999 cumulative IPC: 0.805664 (Simulation time: 0 hr 23 min 13 sec) 
Heartbeat CPU 0 instructions: 750000001 cycles: 853294518 heartbeat IPC: 0.808238 cumulative IPC: 0.805704 (Simulation time: 0 hr 23 min 31 sec) 
Heartbeat CPU 0 instructions: 760000002 cycles: 865642588 heartbeat IPC: 0.809843 cumulative IPC: 0.805766 (Simulation time: 0 hr 23 min 49 sec) 
Heartbeat CPU 0 instructions: 770000000 cycles: 877952180 heartbeat IPC: 0.812374 cumulative IPC: 0.805864 (Simulation time: 0 hr 24 min 7 sec) 
Heartbeat CPU 0 instructions: 780000000 cycles: 890320632 heartbeat IPC: 0.808509 cumulative IPC: 0.805903 (Simulation time: 0 hr 24 min 24 sec) 
Heartbeat CPU 0 instructions: 790000000 cycles: 902619800 heartbeat IPC: 0.813063 cumulative IPC: 0.806005 (Simulation time: 0 hr 24 min 42 sec) 
Heartbeat CPU 0 instructions: 800000001 cycles: 914944825 heartbeat IPC: 0.811357 cumulative IPC: 0.806081 (Simulation time: 0 hr 25 min 0 sec) 
Heartbeat CPU 0 instructions: 810000001 cycles: 927255141 heartbeat IPC: 0.812327 cumulative IPC: 0.806169 (Simulation time: 0 hr 25 min 18 sec) 
Heartbeat CPU 0 instructions: 820000000 cycles: 939599709 heartbeat IPC: 0.810073 cumulative IPC: 0.806223 (Simulation time: 0 hr 25 min 36 sec) 
Heartbeat CPU 0 instructions: 830000000 cycles: 951896845 heartbeat IPC: 0.813197 cumulative IPC: 0.806317 (Simulation time: 0 hr 25 min 54 sec) 
Heartbeat CPU 0 instructions: 840000001 cycles: 964158625 heartbeat IPC: 0.815542 cumulative IPC: 0.806441 (Simulation time: 0 hr 26 min 11 sec) 
Heartbeat CPU 0 instructions: 850000000 cycles: 976473771 heartbeat IPC: 0.812008 cumulative IPC: 0.806514 (Simulation time: 0 hr 26 min 29 sec) 
Heartbeat CPU 0 instructions: 860000000 cycles: 988773891 heartbeat IPC: 0.813 cumulative IPC: 0.806599 (Simulation time: 0 hr 26 min 47 sec) 
Heartbeat CPU 0 instructions: 870000002 cycles: 1001105886 heartbeat IPC: 0.810899 cumulative IPC: 0.806655 (Simulation time: 0 hr 27 min 5 sec) 
Heartbeat CPU 0 instructions: 880000000 cycles: 1013446324 heartbeat IPC: 0.810344 cumulative IPC: 0.806702 (Simulation time: 0 hr 27 min 23 sec) 
Heartbeat CPU 0 instructions: 890000002 cycles: 1025679509 heartbeat IPC: 0.817449 cumulative IPC: 0.806836 (Simulation time: 0 hr 27 min 41 sec) 
Heartbeat CPU 0 instructions: 900000002 cycles: 1037881245 heartbeat IPC: 0.819556 cumulative IPC: 0.806993 (Simulation time: 0 hr 27 min 59 sec) 
Heartbeat CPU 0 instructions: 910000001 cycles: 1050115865 heartbeat IPC: 0.817353 cumulative IPC: 0.807119 (Simulation time: 0 hr 28 min 16 sec) 
Heartbeat CPU 0 instructions: 920000001 cycles: 1062430282 heartbeat IPC: 0.812056 cumulative IPC: 0.807179 (Simulation time: 0 hr 28 min 34 sec) 
Heartbeat CPU 0 instructions: 930000002 cycles: 1074750437 heartbeat IPC: 0.811678 cumulative IPC: 0.807233 (Simulation time: 0 hr 28 min 52 sec) 
Heartbeat CPU 0 instructions: 940000000 cycles: 1086978867 heartbeat IPC: 0.817766 cumulative IPC: 0.807356 (Simulation time: 0 hr 29 min 10 sec) 
Heartbeat CPU 0 instructions: 950000000 cycles: 1099219488 heartbeat IPC: 0.816952 cumulative IPC: 0.807468 (Simulation time: 0 hr 29 min 28 sec) 
Heartbeat CPU 0 instructions: 960000001 cycles: 1116412782 heartbeat IPC: 0.581622 cumulative IPC: 0.803839 (Simulation time: 0 hr 29 min 50 sec) 
Heartbeat CPU 0 instructions: 970000000 cycles: 1128645255 heartbeat IPC: 0.817496 cumulative IPC: 0.803993 (Simulation time: 0 hr 30 min 7 sec) 
Heartbeat CPU 0 instructions: 980000002 cycles: 1140853854 heartbeat IPC: 0.819095 cumulative IPC: 0.804161 (Simulation time: 0 hr 30 min 25 sec) 
Heartbeat CPU 0 instructions: 990000000 cycles: 1153078745 heartbeat IPC: 0.818003 cumulative IPC: 0.804314 (Simulation time: 0 hr 30 min 43 sec) 
Heartbeat CPU 0 instructions: 1000000000 cycles: 1165339274 heartbeat IPC: 0.815625 cumulative IPC: 0.804438 (Simulation time: 0 hr 31 min 1 sec) 
Heartbeat CPU 0 instructions: 1010000002 cycles: 1177559631 heartbeat IPC: 0.818307 cumulative IPC: 0.804588 (Simulation time: 0 hr 31 min 19 sec) 
Heartbeat CPU 0 instructions: 1020000001 cycles: 1189772030 heartbeat IPC: 0.81884 cumulative IPC: 0.80474 (Simulation time: 0 hr 31 min 37 sec) 
Heartbeat CPU 0 instructions: 1030000000 cycles: 1201993683 heartbeat IPC: 0.81822 cumulative IPC: 0.804883 (Simulation time: 0 hr 31 min 54 sec) 
Heartbeat CPU 0 instructions: 1040000003 cycles: 1214218192 heartbeat IPC: 0.818029 cumulative IPC: 0.805021 (Simulation time: 0 hr 32 min 12 sec) 
Heartbeat CPU 0 instructions: 1050000003 cycles: 1226517235 heartbeat IPC: 0.813071 cumulative IPC: 0.805105 (Simulation time: 0 hr 32 min 30 sec) 
Heartbeat CPU 0 instructions: 1060000001 cycles: 1238725363 heartbeat IPC: 0.819126 cumulative IPC: 0.805248 (Simulation time: 0 hr 32 min 48 sec) 
Heartbeat CPU 0 instructions: 1070000000 cycles: 1250947986 heartbeat IPC: 0.818155 cumulative IPC: 0.805379 (Simulation time: 0 hr 33 min 6 sec) 
Heartbeat CPU 0 instructions: 1080000001 cycles: 1263216723 heartbeat IPC: 0.81508 cumulative IPC: 0.805477 (Simulation time: 0 hr 33 min 23 sec) 
Heartbeat CPU 0 instructions: 1090000000 cycles: 1275498380 heartbeat IPC: 0.814222 cumulative IPC: 0.805564 (Simulation time: 0 hr 33 min 41 sec) 
Heartbeat CPU 0 instructions: 1100000000 cycles: 1287690831 heartbeat IPC: 0.82018 cumulative IPC: 0.805708 (Simulation time: 0 hr 33 min 59 sec) 
Finished CPU 0 instructions: 1000000000 cycles: 1241144603 cumulative IPC: 0.805708 (Simulation time: 0 hr 33 min 59 sec) 

ChampSim completed all CPUs

Region of Interest Statistics

CPU 0 cumulative IPC: 0.805708 instructions: 1000000000 cycles: 1241144603
L1D TOTAL     ACCESS:  316208249  HIT:  313252346  MISS:    2955903
L1D LOAD      ACCESS:  201704665  HIT:  199102391  MISS:    2602274
L1D RFO       ACCESS:  114503584  HIT:  114149955  MISS:     353629
L1D PREFETCH  ACCESS:          0  HIT:          0  MISS:          0
L1D WRITEBACK ACCESS:          0  HIT:          0  MISS:          0
L1D PREFETCH  REQUESTED:          0  ISSUED:          0  USEFUL:          0  USELESS:          0
L1D AVERAGE MISS LATENCY: 19.4812 cycles
L1I TOTAL     ACCESS:  183737769  HIT:  183681151  MISS:      56618
L1I LOAD      ACCESS:  183737769  HIT:  183681151  MISS:      56618
L1I RFO       ACCESS:          0  HIT:          0  MISS:          0
L1I PREFETCH  ACCESS:          0  HIT:          0  MISS:          0
L1I WRITEBACK ACCESS:          0  HIT:          0  MISS:          0
L1I PREFETCH  REQUESTED:          0  ISSUED:          0  USEFUL:          0  USELESS:          0
L1I AVERAGE MISS LATENCY: 18.5812 cycles
L2C TOTAL     ACCESS:    3594697  HIT:    3389339  MISS:     205358
L2C LOAD      ACCESS:    2658732  HIT:    2523105  MISS:     135627
L2C RFO       ACCESS:     353623  HIT:     283961  MISS:      69662
L2C PREFETCH  ACCESS:          0  HIT:          0  MISS:          0
L2C WRITEBACK ACCESS:     582342  HIT:     582273  MISS:         69
L2C PREFETCH  REQUESTED:          0  ISSUED:          0  USEFUL:          0  USELESS:          0
L2C AVERAGE MISS LATENCY: 109.104 cycles
LLC TOTAL     ACCESS:     282890  HIT:     171615  MISS:     111275
LLC LOAD      ACCESS:     135627  HIT:      91246  MISS:      44381
LLC RFO       ACCESS:      69662  HIT:      18482  MISS:      51180
LLC PREFETCH  ACCESS:          0  HIT:          0  MISS:          0
LLC WRITEBACK ACCESS:      77601  HIT:      61887  MISS:      15714
LLC PREFETCH  REQUESTED:          0  ISSUED:          0  USEFUL:          0  USELESS:          0
LLC AVERAGE MISS LATENCY: 127.246 cycles
Major fault: 0 Minor fault: 1740

DRAM Statistics
 CHANNEL 0
 RQ ROW_BUFFER_HIT:      40315  ROW_BUFFER_MISS:      55199
 DBUS_CONGESTED:      19981
 WQ ROW_BUFFER_HIT:      13881  ROW_BUFFER_MISS:      13938  FULL:          0

 AVG_CONGESTED_CYCLE: 6

CPU 0 Branch Prediction Accuracy: 87.4973% MPKI: 20.452 Average ROB Occupancy at Mispredict: 22.6984

Branch types
NOT_BRANCH: 836419616 83.642%
BRANCH_DIRECT_JUMP: 5445299 0.54453%
BRANCH_INDIRECT: 6861 0.0006861%
BRANCH_CONDITIONAL: 99292811 9.92928%
BRANCH_DIRECT_CALL: 29417492 2.94175%
BRANCH_INDIRECT_CALL: 78 7.8e-06%
BRANCH_RETURN: 29417568 2.94176%
BRANCH_OTHER: 0 0%

