
*** ChampSim Multicore Out-of-Order Simulator ***

Warmup Instructions: 100000000
Simulation Instructions: 1000000000
Number of CPUs: 1
LLC sets: 2048
LLC ways: 16
Off-chip DRAM Size: 4096 MB Channels: 1 Width: 64-bit Data Rate: 3200 MT/s

CPU 0 runs /scratch/user/kevin.weston/dpc3-traces/641.champsimtrace.xz
CPU 0 Bimodal branch predictor
Initialize RRPV
Initialize PRRIP state
Heartbeat CPU 0 instructions: 10000003 cycles: 4649865 heartbeat IPC: 2.1506 cumulative IPC: 2.1506 (Simulation time: 0 hr 0 min 24 sec) 
Heartbeat CPU 0 instructions: 20000003 cycles: 9296101 heartbeat IPC: 2.15228 cumulative IPC: 2.15144 (Simulation time: 0 hr 0 min 49 sec) 
Heartbeat CPU 0 instructions: 30000001 cycles: 13960901 heartbeat IPC: 2.14371 cumulative IPC: 2.14886 (Simulation time: 0 hr 1 min 13 sec) 
Heartbeat CPU 0 instructions: 40000002 cycles: 18612339 heartbeat IPC: 2.14987 cumulative IPC: 2.14911 (Simulation time: 0 hr 1 min 37 sec) 
Heartbeat CPU 0 instructions: 50000001 cycles: 23258685 heartbeat IPC: 2.15223 cumulative IPC: 2.14973 (Simulation time: 0 hr 2 min 2 sec) 
Heartbeat CPU 0 instructions: 60000000 cycles: 27917034 heartbeat IPC: 2.14668 cumulative IPC: 2.14923 (Simulation time: 0 hr 2 min 26 sec) 
Heartbeat CPU 0 instructions: 70000001 cycles: 32574836 heartbeat IPC: 2.14694 cumulative IPC: 2.1489 (Simulation time: 0 hr 2 min 51 sec) 
Heartbeat CPU 0 instructions: 80000001 cycles: 37238949 heartbeat IPC: 2.14403 cumulative IPC: 2.14829 (Simulation time: 0 hr 3 min 15 sec) 
Heartbeat CPU 0 instructions: 90000003 cycles: 41905392 heartbeat IPC: 2.14296 cumulative IPC: 2.1477 (Simulation time: 0 hr 3 min 40 sec) 
Heartbeat CPU 0 instructions: 100000000 cycles: 46546062 heartbeat IPC: 2.15486 cumulative IPC: 2.14841 (Simulation time: 0 hr 4 min 4 sec) 

Warmup complete CPU 0 instructions: 100000004 cycles: 46546063 (Simulation time: 0 hr 4 min 4 sec) 

Heartbeat CPU 0 instructions: 110000000 cycles: 58832944 heartbeat IPC: 0.813876 cumulative IPC: 0.813876 (Simulation time: 0 hr 4 min 21 sec) 
Heartbeat CPU 0 instructions: 120000001 cycles: 75910890 heartbeat IPC: 0.585551 cumulative IPC: 0.681087 (Simulation time: 0 hr 4 min 41 sec) 
Heartbeat CPU 0 instructions: 130000000 cycles: 88342022 heartbeat IPC: 0.804432 cumulative IPC: 0.717773 (Simulation time: 0 hr 4 min 58 sec) 
Heartbeat CPU 0 instructions: 140000000 cycles: 100697605 heartbeat IPC: 0.809351 cumulative IPC: 0.738668 (Simulation time: 0 hr 5 min 15 sec) 
Heartbeat CPU 0 instructions: 150000001 cycles: 113002127 heartbeat IPC: 0.812709 cumulative IPC: 0.752377 (Simulation time: 0 hr 5 min 32 sec) 
Heartbeat CPU 0 instructions: 160000002 cycles: 125372376 heartbeat IPC: 0.808391 cumulative IPC: 0.761167 (Simulation time: 0 hr 5 min 50 sec) 
Heartbeat CPU 0 instructions: 170000001 cycles: 137804185 heartbeat IPC: 0.804388 cumulative IPC: 0.767055 (Simulation time: 0 hr 6 min 7 sec) 
Heartbeat CPU 0 instructions: 180000000 cycles: 150190237 heartbeat IPC: 0.80736 cumulative IPC: 0.771872 (Simulation time: 0 hr 6 min 24 sec) 
Heartbeat CPU 0 instructions: 190000002 cycles: 162572530 heartbeat IPC: 0.807605 cumulative IPC: 0.775685 (Simulation time: 0 hr 6 min 41 sec) 
Heartbeat CPU 0 instructions: 200000000 cycles: 174926761 heartbeat IPC: 0.809439 cumulative IPC: 0.778933 (Simulation time: 0 hr 6 min 58 sec) 
Heartbeat CPU 0 instructions: 210000001 cycles: 187208747 heartbeat IPC: 0.814201 cumulative IPC: 0.782013 (Simulation time: 0 hr 7 min 16 sec) 
Heartbeat CPU 0 instructions: 220000000 cycles: 199573469 heartbeat IPC: 0.808752 cumulative IPC: 0.784173 (Simulation time: 0 hr 7 min 33 sec) 
Heartbeat CPU 0 instructions: 230000000 cycles: 211971215 heartbeat IPC: 0.806598 cumulative IPC: 0.785854 (Simulation time: 0 hr 7 min 50 sec) 
Heartbeat CPU 0 instructions: 240000001 cycles: 224354672 heartbeat IPC: 0.807529 cumulative IPC: 0.787363 (Simulation time: 0 hr 8 min 7 sec) 
Heartbeat CPU 0 instructions: 250000002 cycles: 236696910 heartbeat IPC: 0.810226 cumulative IPC: 0.788847 (Simulation time: 0 hr 8 min 24 sec) 
Heartbeat CPU 0 instructions: 260000000 cycles: 249009197 heartbeat IPC: 0.812197 cumulative IPC: 0.790267 (Simulation time: 0 hr 8 min 41 sec) 
Heartbeat CPU 0 instructions: 270000000 cycles: 261349963 heartbeat IPC: 0.810322 cumulative IPC: 0.79142 (Simulation time: 0 hr 8 min 59 sec) 
Heartbeat CPU 0 instructions: 280000000 cycles: 273685936 heartbeat IPC: 0.810637 cumulative IPC: 0.792463 (Simulation time: 0 hr 9 min 16 sec) 
Heartbeat CPU 0 instructions: 290000000 cycles: 285932400 heartbeat IPC: 0.816562 cumulative IPC: 0.793696 (Simulation time: 0 hr 9 min 33 sec) 
Heartbeat CPU 0 instructions: 300000001 cycles: 298241296 heartbeat IPC: 0.812421 cumulative IPC: 0.794612 (Simulation time: 0 hr 9 min 50 sec) 
Heartbeat CPU 0 instructions: 310000000 cycles: 310504015 heartbeat IPC: 0.81548 cumulative IPC: 0.795581 (Simulation time: 0 hr 10 min 7 sec) 
Heartbeat CPU 0 instructions: 320000002 cycles: 322810926 heartbeat IPC: 0.812552 cumulative IPC: 0.796337 (Simulation time: 0 hr 10 min 25 sec) 
Heartbeat CPU 0 instructions: 330000000 cycles: 335058641 heartbeat IPC: 0.816479 cumulative IPC: 0.797192 (Simulation time: 0 hr 10 min 42 sec) 
Heartbeat CPU 0 instructions: 340000001 cycles: 347353088 heartbeat IPC: 0.813375 cumulative IPC: 0.797854 (Simulation time: 0 hr 10 min 59 sec) 
Heartbeat CPU 0 instructions: 350000001 cycles: 359699875 heartbeat IPC: 0.809927 cumulative IPC: 0.79833 (Simulation time: 0 hr 11 min 16 sec) 
Heartbeat CPU 0 instructions: 360000003 cycles: 372007298 heartbeat IPC: 0.812518 cumulative IPC: 0.798866 (Simulation time: 0 hr 11 min 33 sec) 
Heartbeat CPU 0 instructions: 370000002 cycles: 384273890 heartbeat IPC: 0.815222 cumulative IPC: 0.79946 (Simulation time: 0 hr 11 min 50 sec) 
Heartbeat CPU 0 instructions: 380000001 cycles: 396638562 heartbeat IPC: 0.808756 cumulative IPC: 0.799789 (Simulation time: 0 hr 12 min 7 sec) 
Heartbeat CPU 0 instructions: 390000001 cycles: 409015756 heartbeat IPC: 0.807938 cumulative IPC: 0.800067 (Simulation time: 0 hr 12 min 24 sec) 
Heartbeat CPU 0 instructions: 400000000 cycles: 421336574 heartbeat IPC: 0.811634 cumulative IPC: 0.800447 (Simulation time: 0 hr 12 min 42 sec) 
Heartbeat CPU 0 instructions: 410000001 cycles: 433605688 heartbeat IPC: 0.815055 cumulative IPC: 0.80091 (Simulation time: 0 hr 12 min 59 sec) 
Heartbeat CPU 0 instructions: 420000000 cycles: 445966214 heartbeat IPC: 0.809027 cumulative IPC: 0.801161 (Simulation time: 0 hr 13 min 16 sec) 
Heartbeat CPU 0 instructions: 430000001 cycles: 458379874 heartbeat IPC: 0.805564 cumulative IPC: 0.801294 (Simulation time: 0 hr 13 min 33 sec) 
Heartbeat CPU 0 instructions: 440000000 cycles: 470698929 heartbeat IPC: 0.81175 cumulative IPC: 0.801598 (Simulation time: 0 hr 13 min 50 sec) 
Heartbeat CPU 0 instructions: 450000002 cycles: 483066291 heartbeat IPC: 0.80858 cumulative IPC: 0.801796 (Simulation time: 0 hr 14 min 7 sec) 
Heartbeat CPU 0 instructions: 460000000 cycles: 495399199 heartbeat IPC: 0.810839 cumulative IPC: 0.802044 (Simulation time: 0 hr 14 min 23 sec) 
Heartbeat CPU 0 instructions: 470000000 cycles: 507779791 heartbeat IPC: 0.807716 cumulative IPC: 0.802196 (Simulation time: 0 hr 14 min 40 sec) 
Heartbeat CPU 0 instructions: 480000001 cycles: 520159839 heartbeat IPC: 0.807751 cumulative IPC: 0.802342 (Simulation time: 0 hr 14 min 57 sec) 
Heartbeat CPU 0 instructions: 490000000 cycles: 532334806 heartbeat IPC: 0.821357 cumulative IPC: 0.802818 (Simulation time: 0 hr 15 min 14 sec) 
Heartbeat CPU 0 instructions: 500000002 cycles: 544591989 heartbeat IPC: 0.815848 cumulative IPC: 0.803139 (Simulation time: 0 hr 15 min 31 sec) 
Heartbeat CPU 0 instructions: 510000003 cycles: 556922269 heartbeat IPC: 0.811012 cumulative IPC: 0.803329 (Simulation time: 0 hr 15 min 48 sec) 
Heartbeat CPU 0 instructions: 520000001 cycles: 569343716 heartbeat IPC: 0.805059 cumulative IPC: 0.80337 (Simulation time: 0 hr 16 min 6 sec) 
Heartbeat CPU 0 instructions: 530000002 cycles: 581711280 heartbeat IPC: 0.808567 cumulative IPC: 0.80349 (Simulation time: 0 hr 16 min 23 sec) 
Heartbeat CPU 0 instructions: 540000001 cycles: 594041586 heartbeat IPC: 0.81101 cumulative IPC: 0.80366 (Simulation time: 0 hr 16 min 40 sec) 
Heartbeat CPU 0 instructions: 550000000 cycles: 606365628 heartbeat IPC: 0.811422 cumulative IPC: 0.80383 (Simulation time: 0 hr 16 min 57 sec) 
Heartbeat CPU 0 instructions: 560000001 cycles: 618719065 heartbeat IPC: 0.809491 cumulative IPC: 0.803953 (Simulation time: 0 hr 17 min 15 sec) 
Heartbeat CPU 0 instructions: 570000001 cycles: 631064880 heartbeat IPC: 0.809991 cumulative IPC: 0.80408 (Simulation time: 0 hr 17 min 32 sec) 
Heartbeat CPU 0 instructions: 580000000 cycles: 643341073 heartbeat IPC: 0.814585 cumulative IPC: 0.804296 (Simulation time: 0 hr 17 min 49 sec) 
Heartbeat CPU 0 instructions: 590000000 cycles: 655665915 heartbeat IPC: 0.811369 cumulative IPC: 0.804439 (Simulation time: 0 hr 18 min 6 sec) 
Heartbeat CPU 0 instructions: 600000001 cycles: 667969316 heartbeat IPC: 0.812783 cumulative IPC: 0.804605 (Simulation time: 0 hr 18 min 23 sec) 
Heartbeat CPU 0 instructions: 610000002 cycles: 680308136 heartbeat IPC: 0.81045 cumulative IPC: 0.804718 (Simulation time: 0 hr 18 min 41 sec) 
Heartbeat CPU 0 instructions: 620000002 cycles: 692667200 heartbeat IPC: 0.809123 cumulative IPC: 0.804803 (Simulation time: 0 hr 18 min 58 sec) 
Heartbeat CPU 0 instructions: 630000001 cycles: 705025316 heartbeat IPC: 0.809185 cumulative IPC: 0.804885 (Simulation time: 0 hr 19 min 15 sec) 
Heartbeat CPU 0 instructions: 640000002 cycles: 717418802 heartbeat IPC: 0.806876 cumulative IPC: 0.804922 (Simulation time: 0 hr 19 min 32 sec) 
Heartbeat CPU 0 instructions: 650000001 cycles: 729769452 heartbeat IPC: 0.809674 cumulative IPC: 0.805008 (Simulation time: 0 hr 19 min 49 sec) 
Heartbeat CPU 0 instructions: 660000000 cycles: 742081943 heartbeat IPC: 0.812183 cumulative IPC: 0.805135 (Simulation time: 0 hr 20 min 6 sec) 
Heartbeat CPU 0 instructions: 670000000 cycles: 754426502 heartbeat IPC: 0.810073 cumulative IPC: 0.805221 (Simulation time: 0 hr 20 min 23 sec) 
Heartbeat CPU 0 instructions: 680000003 cycles: 766793509 heartbeat IPC: 0.808603 cumulative IPC: 0.805279 (Simulation time: 0 hr 20 min 40 sec) 
Heartbeat CPU 0 instructions: 690000000 cycles: 779129726 heartbeat IPC: 0.810621 cumulative IPC: 0.805369 (Simulation time: 0 hr 20 min 57 sec) 
Heartbeat CPU 0 instructions: 700000002 cycles: 791480979 heartbeat IPC: 0.809635 cumulative IPC: 0.805439 (Simulation time: 0 hr 21 min 15 sec) 
Heartbeat CPU 0 instructions: 710000002 cycles: 803763465 heartbeat IPC: 0.814167 cumulative IPC: 0.805581 (Simulation time: 0 hr 21 min 32 sec) 
Heartbeat CPU 0 instructions: 720000001 cycles: 816148455 heartbeat IPC: 0.807429 cumulative IPC: 0.805611 (Simulation time: 0 hr 21 min 49 sec) 
Heartbeat CPU 0 instructions: 730000000 cycles: 828515271 heartbeat IPC: 0.808616 cumulative IPC: 0.805658 (Simulation time: 0 hr 22 min 6 sec) 
Heartbeat CPU 0 instructions: 740000002 cycles: 840862063 heartbeat IPC: 0.809927 cumulative IPC: 0.805725 (Simulation time: 0 hr 22 min 23 sec) 
Heartbeat CPU 0 instructions: 750000001 cycles: 853235694 heartbeat IPC: 0.80817 cumulative IPC: 0.805762 (Simulation time: 0 hr 22 min 40 sec) 
Heartbeat CPU 0 instructions: 760000002 cycles: 865583931 heartbeat IPC: 0.809832 cumulative IPC: 0.805824 (Simulation time: 0 hr 22 min 57 sec) 
Heartbeat CPU 0 instructions: 770000000 cycles: 877894254 heartbeat IPC: 0.812326 cumulative IPC: 0.80592 (Simulation time: 0 hr 23 min 14 sec) 
Heartbeat CPU 0 instructions: 780000000 cycles: 890260897 heartbeat IPC: 0.808627 cumulative IPC: 0.80596 (Simulation time: 0 hr 23 min 32 sec) 
Heartbeat CPU 0 instructions: 790000000 cycles: 902559945 heartbeat IPC: 0.813071 cumulative IPC: 0.806062 (Simulation time: 0 hr 23 min 49 sec) 
Heartbeat CPU 0 instructions: 800000001 cycles: 914885737 heartbeat IPC: 0.811307 cumulative IPC: 0.806136 (Simulation time: 0 hr 24 min 5 sec) 
Heartbeat CPU 0 instructions: 810000001 cycles: 927196346 heartbeat IPC: 0.812307 cumulative IPC: 0.806222 (Simulation time: 0 hr 24 min 23 sec) 
Heartbeat CPU 0 instructions: 820000000 cycles: 939541229 heartbeat IPC: 0.810052 cumulative IPC: 0.806275 (Simulation time: 0 hr 24 min 40 sec) 
Heartbeat CPU 0 instructions: 830000000 cycles: 951837517 heartbeat IPC: 0.813254 cumulative IPC: 0.80637 (Simulation time: 0 hr 24 min 57 sec) 
Heartbeat CPU 0 instructions: 840000001 cycles: 964098890 heartbeat IPC: 0.815569 cumulative IPC: 0.806493 (Simulation time: 0 hr 25 min 14 sec) 
Heartbeat CPU 0 instructions: 850000000 cycles: 976416700 heartbeat IPC: 0.811833 cumulative IPC: 0.806564 (Simulation time: 0 hr 25 min 31 sec) 
Heartbeat CPU 0 instructions: 860000000 cycles: 988716618 heartbeat IPC: 0.813014 cumulative IPC: 0.806648 (Simulation time: 0 hr 25 min 48 sec) 
Heartbeat CPU 0 instructions: 870000002 cycles: 1001048946 heartbeat IPC: 0.810877 cumulative IPC: 0.806703 (Simulation time: 0 hr 26 min 5 sec) 
Heartbeat CPU 0 instructions: 880000000 cycles: 1013389756 heartbeat IPC: 0.810319 cumulative IPC: 0.806749 (Simulation time: 0 hr 26 min 22 sec) 
Heartbeat CPU 0 instructions: 890000002 cycles: 1025626186 heartbeat IPC: 0.817232 cumulative IPC: 0.80688 (Simulation time: 0 hr 26 min 39 sec) 
Heartbeat CPU 0 instructions: 900000002 cycles: 1037830305 heartbeat IPC: 0.819395 cumulative IPC: 0.807034 (Simulation time: 0 hr 26 min 56 sec) 
Heartbeat CPU 0 instructions: 910000001 cycles: 1050067868 heartbeat IPC: 0.817156 cumulative IPC: 0.807157 (Simulation time: 0 hr 27 min 13 sec) 
Heartbeat CPU 0 instructions: 920000001 cycles: 1062383535 heartbeat IPC: 0.811974 cumulative IPC: 0.807216 (Simulation time: 0 hr 27 min 30 sec) 
Heartbeat CPU 0 instructions: 930000002 cycles: 1074707434 heartbeat IPC: 0.811432 cumulative IPC: 0.807266 (Simulation time: 0 hr 27 min 47 sec) 
Heartbeat CPU 0 instructions: 940000000 cycles: 1086938007 heartbeat IPC: 0.817623 cumulative IPC: 0.807388 (Simulation time: 0 hr 28 min 4 sec) 
Heartbeat CPU 0 instructions: 950000000 cycles: 1099179128 heartbeat IPC: 0.816919 cumulative IPC: 0.807499 (Simulation time: 0 hr 28 min 21 sec) 
Heartbeat CPU 0 instructions: 960000001 cycles: 1116170980 heartbeat IPC: 0.588517 cumulative IPC: 0.80402 (Simulation time: 0 hr 28 min 42 sec) 
Heartbeat CPU 0 instructions: 970000000 cycles: 1128433229 heartbeat IPC: 0.815511 cumulative IPC: 0.80415 (Simulation time: 0 hr 28 min 59 sec) 
Heartbeat CPU 0 instructions: 980000002 cycles: 1140665090 heartbeat IPC: 0.817537 cumulative IPC: 0.8043 (Simulation time: 0 hr 29 min 16 sec) 
Heartbeat CPU 0 instructions: 990000000 cycles: 1152908704 heartbeat IPC: 0.816752 cumulative IPC: 0.804438 (Simulation time: 0 hr 29 min 33 sec) 
Heartbeat CPU 0 instructions: 1000000000 cycles: 1165181450 heartbeat IPC: 0.814814 cumulative IPC: 0.804552 (Simulation time: 0 hr 29 min 50 sec) 
Heartbeat CPU 0 instructions: 1010000002 cycles: 1177411250 heartbeat IPC: 0.817675 cumulative IPC: 0.804694 (Simulation time: 0 hr 30 min 8 sec) 
Heartbeat CPU 0 instructions: 1020000001 cycles: 1189634938 heartbeat IPC: 0.818084 cumulative IPC: 0.804837 (Simulation time: 0 hr 30 min 25 sec) 
Heartbeat CPU 0 instructions: 1030000000 cycles: 1201874006 heartbeat IPC: 0.817056 cumulative IPC: 0.804966 (Simulation time: 0 hr 30 min 42 sec) 
Heartbeat CPU 0 instructions: 1040000003 cycles: 1214103314 heartbeat IPC: 0.817708 cumulative IPC: 0.8051 (Simulation time: 0 hr 30 min 58 sec) 
Heartbeat CPU 0 instructions: 1050000003 cycles: 1226409428 heartbeat IPC: 0.812604 cumulative IPC: 0.805178 (Simulation time: 0 hr 31 min 15 sec) 
Heartbeat CPU 0 instructions: 1060000001 cycles: 1238621623 heartbeat IPC: 0.818853 cumulative IPC: 0.805318 (Simulation time: 0 hr 31 min 32 sec) 
Heartbeat CPU 0 instructions: 1070000000 cycles: 1250853906 heartbeat IPC: 0.817509 cumulative IPC: 0.805442 (Simulation time: 0 hr 31 min 49 sec) 
Heartbeat CPU 0 instructions: 1080000001 cycles: 1263124999 heartbeat IPC: 0.814923 cumulative IPC: 0.805538 (Simulation time: 0 hr 32 min 6 sec) 
Heartbeat CPU 0 instructions: 1090000000 cycles: 1275411279 heartbeat IPC: 0.813916 cumulative IPC: 0.805621 (Simulation time: 0 hr 32 min 23 sec) 
Heartbeat CPU 0 instructions: 1100000000 cycles: 1287605450 heartbeat IPC: 0.820064 cumulative IPC: 0.805763 (Simulation time: 0 hr 32 min 40 sec) 
Finished CPU 0 instructions: 1000000000 cycles: 1241059396 cumulative IPC: 0.805763 (Simulation time: 0 hr 32 min 40 sec) 

ChampSim completed all CPUs

Region of Interest Statistics

CPU 0 cumulative IPC: 0.805763 instructions: 1000000000 cycles: 1241059396
L1D TOTAL     ACCESS:  316205207  HIT:  313249304  MISS:    2955903
L1D LOAD      ACCESS:  201703688  HIT:  199101416  MISS:    2602272
L1D RFO       ACCESS:  114501519  HIT:  114147888  MISS:     353631
L1D PREFETCH  ACCESS:          0  HIT:          0  MISS:          0
L1D WRITEBACK ACCESS:          0  HIT:          0  MISS:          0
L1D PREFETCH  REQUESTED:          0  ISSUED:          0  USEFUL:          0  USELESS:          0
L1D AVERAGE MISS LATENCY: 19.8594 cycles
L1I TOTAL     ACCESS:  183737453  HIT:  183680835  MISS:      56618
L1I LOAD      ACCESS:  183737453  HIT:  183680835  MISS:      56618
L1I RFO       ACCESS:          0  HIT:          0  MISS:          0
L1I PREFETCH  ACCESS:          0  HIT:          0  MISS:          0
L1I WRITEBACK ACCESS:          0  HIT:          0  MISS:          0
L1I PREFETCH  REQUESTED:          0  ISSUED:          0  USEFUL:          0  USELESS:          0
L1I AVERAGE MISS LATENCY: 18.3876 cycles
L2C TOTAL     ACCESS:    3594697  HIT:    3391203  MISS:     203494
L2C LOAD      ACCESS:    2658731  HIT:    2524783  MISS:     133948
L2C RFO       ACCESS:     353626  HIT:     284216  MISS:      69410
L2C PREFETCH  ACCESS:          0  HIT:          0  MISS:          0
L2C WRITEBACK ACCESS:     582340  HIT:     582204  MISS:        136
L2C PREFETCH  REQUESTED:          0  ISSUED:          0  USEFUL:          0  USELESS:          0
L2C AVERAGE MISS LATENCY: 115.547 cycles
LLC TOTAL     ACCESS:     280814  HIT:     155141  MISS:     125673
LLC LOAD      ACCESS:     133948  HIT:      89511  MISS:      44437
LLC RFO       ACCESS:      69410  HIT:      16931  MISS:      52479
LLC PREFETCH  ACCESS:          0  HIT:          0  MISS:          0
LLC WRITEBACK ACCESS:      77456  HIT:      48699  MISS:      28757
LLC PREFETCH  REQUESTED:          0  ISSUED:          0  USEFUL:          0  USELESS:          0
LLC AVERAGE MISS LATENCY: 122.092 cycles
Major fault: 0 Minor fault: 1740
==============================
Perceptron RRIP Stats:
   Num Updates:          209051
   Num Primary Trains:   4416
   Num Secondary Trains: 4386
==============================
primary_perceptron #0: -6 0 0 -8 0 -6 4 2 6 -4 -2 4 4 0 -4 -2 
secondary_perceptron #0: -12 2 2 -8 -2 -4 4 0 6 -6 0 6 2 0 0 0 -2 -6 0 -2 -4 


DRAM Statistics
 CHANNEL 0
 RQ ROW_BUFFER_HIT:      39968  ROW_BUFFER_MISS:      56942
 DBUS_CONGESTED:      35119
 WQ ROW_BUFFER_HIT:      16975  ROW_BUFFER_MISS:      23308  FULL:        631

 AVG_CONGESTED_CYCLE: 6

CPU 0 Branch Prediction Accuracy: 87.4973% MPKI: 20.452 Average ROB Occupancy at Mispredict: 22.7002

Branch types
NOT_BRANCH: 836419616 83.642%
BRANCH_DIRECT_JUMP: 5445299 0.54453%
BRANCH_INDIRECT: 6861 0.0006861%
BRANCH_CONDITIONAL: 99292811 9.92928%
BRANCH_DIRECT_CALL: 29417492 2.94175%
BRANCH_INDIRECT_CALL: 78 7.8e-06%
BRANCH_RETURN: 29417568 2.94176%
BRANCH_OTHER: 0 0%

