
*** ChampSim Multicore Out-of-Order Simulator ***

Warmup Instructions: 100000000
Simulation Instructions: 1000000000
Number of CPUs: 1
LLC sets: 2048
LLC ways: 16
Off-chip DRAM Size: 4096 MB Channels: 1 Width: 64-bit Data Rate: 3200 MT/s

CPU 0 runs /scratch/user/kevin.weston/dpc3-traces/641.champsimtrace.xz
CPU 0 Bimodal branch predictor
Initialize DRRIP state
Assign rand_sets[0]: 454  LLC: 2048
rand_sets[0]: 454
Assign rand_sets[1]: 1662  LLC: 2048
rand_sets[1]: 1662
Assign rand_sets[2]: 1921  LLC: 2048
rand_sets[2]: 1921
Assign rand_sets[3]: 1131  LLC: 2048
rand_sets[3]: 1131
Assign rand_sets[4]: 331  LLC: 2048
rand_sets[4]: 331
Assign rand_sets[5]: 1531  LLC: 2048
rand_sets[5]: 1531
Assign rand_sets[6]: 482  LLC: 2048
rand_sets[6]: 482
Assign rand_sets[7]: 1275  LLC: 2048
rand_sets[7]: 1275
Assign rand_sets[8]: 1876  LLC: 2048
rand_sets[8]: 1876
Assign rand_sets[9]: 2038  LLC: 2048
rand_sets[9]: 2038
Assign rand_sets[10]: 701  LLC: 2048
rand_sets[10]: 701
Assign rand_sets[11]: 479  LLC: 2048
rand_sets[11]: 479
Assign rand_sets[12]: 892  LLC: 2048
rand_sets[12]: 892
Assign rand_sets[13]: 1820  LLC: 2048
rand_sets[13]: 1820
Assign rand_sets[14]: 1505  LLC: 2048
rand_sets[14]: 1505
Assign rand_sets[15]: 1159  LLC: 2048
rand_sets[15]: 1159
Assign rand_sets[16]: 513  LLC: 2048
rand_sets[16]: 513
Assign rand_sets[17]: 703  LLC: 2048
rand_sets[17]: 703
Assign rand_sets[18]: 561  LLC: 2048
rand_sets[18]: 561
Assign rand_sets[19]: 990  LLC: 2048
rand_sets[19]: 990
Assign rand_sets[20]: 342  LLC: 2048
rand_sets[20]: 342
Assign rand_sets[21]: 882  LLC: 2048
rand_sets[21]: 882
Assign rand_sets[22]: 15  LLC: 2048
rand_sets[22]: 15
Assign rand_sets[23]: 71  LLC: 2048
rand_sets[23]: 71
Assign rand_sets[24]: 1127  LLC: 2048
rand_sets[24]: 1127
Assign rand_sets[25]: 1382  LLC: 2048
rand_sets[25]: 1382
Assign rand_sets[26]: 647  LLC: 2048
rand_sets[26]: 647
Assign rand_sets[27]: 857  LLC: 2048
rand_sets[27]: 857
Assign rand_sets[28]: 1450  LLC: 2048
rand_sets[28]: 1450
Assign rand_sets[29]: 1160  LLC: 2048
rand_sets[29]: 1160
Assign rand_sets[30]: 1852  LLC: 2048
rand_sets[30]: 1852
Assign rand_sets[31]: 1881  LLC: 2048
rand_sets[31]: 1881
Assign rand_sets[32]: 1770  LLC: 2048
rand_sets[32]: 1770
Assign rand_sets[33]: 1622  LLC: 2048
rand_sets[33]: 1622
Assign rand_sets[34]: 275  LLC: 2048
rand_sets[34]: 275
Assign rand_sets[35]: 635  LLC: 2048
rand_sets[35]: 635
Assign rand_sets[36]: 466  LLC: 2048
rand_sets[36]: 466
Assign rand_sets[37]: 1413  LLC: 2048
rand_sets[37]: 1413
Assign rand_sets[38]: 417  LLC: 2048
rand_sets[38]: 417
Assign rand_sets[39]: 472  LLC: 2048
rand_sets[39]: 472
Assign rand_sets[40]: 1340  LLC: 2048
rand_sets[40]: 1340
Assign rand_sets[41]: 852  LLC: 2048
rand_sets[41]: 852
Assign rand_sets[42]: 1365  LLC: 2048
rand_sets[42]: 1365
Assign rand_sets[43]: 47  LLC: 2048
rand_sets[43]: 47
Assign rand_sets[44]: 823  LLC: 2048
rand_sets[44]: 823
Assign rand_sets[45]: 686  LLC: 2048
rand_sets[45]: 686
Assign rand_sets[46]: 1637  LLC: 2048
rand_sets[46]: 1637
Assign rand_sets[47]: 1115  LLC: 2048
rand_sets[47]: 1115
Assign rand_sets[48]: 986  LLC: 2048
rand_sets[48]: 986
Assign rand_sets[49]: 258  LLC: 2048
rand_sets[49]: 258
Assign rand_sets[50]: 633  LLC: 2048
rand_sets[50]: 633
Assign rand_sets[51]: 920  LLC: 2048
rand_sets[51]: 920
Assign rand_sets[52]: 204  LLC: 2048
rand_sets[52]: 204
Assign rand_sets[53]: 227  LLC: 2048
rand_sets[53]: 227
Assign rand_sets[54]: 1818  LLC: 2048
rand_sets[54]: 1818
Assign rand_sets[55]: 886  LLC: 2048
rand_sets[55]: 886
Assign rand_sets[56]: 1422  LLC: 2048
rand_sets[56]: 1422
Assign rand_sets[57]: 607  LLC: 2048
rand_sets[57]: 607
Assign rand_sets[58]: 217  LLC: 2048
rand_sets[58]: 217
Assign rand_sets[59]: 1945  LLC: 2048
rand_sets[59]: 1945
Assign rand_sets[60]: 143  LLC: 2048
rand_sets[60]: 143
Assign rand_sets[61]: 1311  LLC: 2048
rand_sets[61]: 1311
Assign rand_sets[62]: 319  LLC: 2048
rand_sets[62]: 319
Assign rand_sets[63]: 1846  LLC: 2048
rand_sets[63]: 1846
Heartbeat CPU 0 instructions: 10000003 cycles: 4649880 heartbeat IPC: 2.15059 cumulative IPC: 2.15059 (Simulation time: 0 hr 0 min 26 sec) 
Heartbeat CPU 0 instructions: 20000003 cycles: 9296158 heartbeat IPC: 2.15226 cumulative IPC: 2.15143 (Simulation time: 0 hr 0 min 52 sec) 
Heartbeat CPU 0 instructions: 30000001 cycles: 13960990 heartbeat IPC: 2.1437 cumulative IPC: 2.14884 (Simulation time: 0 hr 1 min 17 sec) 
Heartbeat CPU 0 instructions: 40000002 cycles: 18612461 heartbeat IPC: 2.14986 cumulative IPC: 2.1491 (Simulation time: 0 hr 1 min 43 sec) 
Heartbeat CPU 0 instructions: 50000001 cycles: 23258865 heartbeat IPC: 2.1522 cumulative IPC: 2.14972 (Simulation time: 0 hr 2 min 9 sec) 
Heartbeat CPU 0 instructions: 60000000 cycles: 27917260 heartbeat IPC: 2.14666 cumulative IPC: 2.14921 (Simulation time: 0 hr 2 min 35 sec) 
Heartbeat CPU 0 instructions: 70000001 cycles: 32575100 heartbeat IPC: 2.14692 cumulative IPC: 2.14888 (Simulation time: 0 hr 3 min 1 sec) 
Heartbeat CPU 0 instructions: 80000001 cycles: 37239269 heartbeat IPC: 2.144 cumulative IPC: 2.14827 (Simulation time: 0 hr 3 min 27 sec) 
Heartbeat CPU 0 instructions: 90000003 cycles: 41905752 heartbeat IPC: 2.14294 cumulative IPC: 2.14768 (Simulation time: 0 hr 3 min 53 sec) 
Heartbeat CPU 0 instructions: 100000000 cycles: 46546491 heartbeat IPC: 2.15483 cumulative IPC: 2.14839 (Simulation time: 0 hr 4 min 19 sec) 

Warmup complete CPU 0 instructions: 100000004 cycles: 46546492 (Simulation time: 0 hr 4 min 19 sec) 

Heartbeat CPU 0 instructions: 110000000 cycles: 58834352 heartbeat IPC: 0.813811 cumulative IPC: 0.813811 (Simulation time: 0 hr 4 min 37 sec) 
Heartbeat CPU 0 instructions: 120000001 cycles: 76828685 heartbeat IPC: 0.555731 cumulative IPC: 0.660454 (Simulation time: 0 hr 4 min 59 sec) 
Heartbeat CPU 0 instructions: 130000000 cycles: 89281012 heartbeat IPC: 0.803063 cumulative IPC: 0.702008 (Simulation time: 0 hr 5 min 18 sec) 
Heartbeat CPU 0 instructions: 140000000 cycles: 101643585 heartbeat IPC: 0.808893 cumulative IPC: 0.725991 (Simulation time: 0 hr 5 min 36 sec) 
Heartbeat CPU 0 instructions: 150000001 cycles: 113953280 heartbeat IPC: 0.812368 cumulative IPC: 0.741765 (Simulation time: 0 hr 5 min 55 sec) 
Heartbeat CPU 0 instructions: 160000002 cycles: 126328985 heartbeat IPC: 0.808035 cumulative IPC: 0.752045 (Simulation time: 0 hr 6 min 13 sec) 
Heartbeat CPU 0 instructions: 170000001 cycles: 138784253 heartbeat IPC: 0.802873 cumulative IPC: 0.758908 (Simulation time: 0 hr 6 min 32 sec) 
Heartbeat CPU 0 instructions: 180000000 cycles: 151172053 heartbeat IPC: 0.807246 cumulative IPC: 0.764631 (Simulation time: 0 hr 6 min 50 sec) 
Heartbeat CPU 0 instructions: 190000002 cycles: 163555825 heartbeat IPC: 0.807509 cumulative IPC: 0.769169 (Simulation time: 0 hr 7 min 9 sec) 
Heartbeat CPU 0 instructions: 200000000 cycles: 175915516 heartbeat IPC: 0.809082 cumulative IPC: 0.772983 (Simulation time: 0 hr 7 min 27 sec) 
Heartbeat CPU 0 instructions: 210000001 cycles: 188197368 heartbeat IPC: 0.81421 cumulative IPC: 0.776557 (Simulation time: 0 hr 7 min 46 sec) 
Heartbeat CPU 0 instructions: 220000000 cycles: 200558997 heartbeat IPC: 0.808955 cumulative IPC: 0.779157 (Simulation time: 0 hr 8 min 5 sec) 
Heartbeat CPU 0 instructions: 230000000 cycles: 212965124 heartbeat IPC: 0.806053 cumulative IPC: 0.781163 (Simulation time: 0 hr 8 min 23 sec) 
Heartbeat CPU 0 instructions: 240000001 cycles: 225348887 heartbeat IPC: 0.807509 cumulative IPC: 0.782987 (Simulation time: 0 hr 8 min 42 sec) 
Heartbeat CPU 0 instructions: 250000002 cycles: 237690018 heartbeat IPC: 0.810299 cumulative IPC: 0.784751 (Simulation time: 0 hr 9 min 0 sec) 
Heartbeat CPU 0 instructions: 260000000 cycles: 250003724 heartbeat IPC: 0.812103 cumulative IPC: 0.786406 (Simulation time: 0 hr 9 min 19 sec) 
Heartbeat CPU 0 instructions: 270000000 cycles: 262346316 heartbeat IPC: 0.810203 cumulative IPC: 0.787767 (Simulation time: 0 hr 9 min 37 sec) 
Heartbeat CPU 0 instructions: 280000000 cycles: 274692403 heartbeat IPC: 0.809973 cumulative IPC: 0.788969 (Simulation time: 0 hr 9 min 56 sec) 
Heartbeat CPU 0 instructions: 290000000 cycles: 286940289 heartbeat IPC: 0.816467 cumulative IPC: 0.79037 (Simulation time: 0 hr 10 min 14 sec) 
Heartbeat CPU 0 instructions: 300000001 cycles: 299251527 heartbeat IPC: 0.812266 cumulative IPC: 0.791437 (Simulation time: 0 hr 10 min 33 sec) 
Heartbeat CPU 0 instructions: 310000000 cycles: 311515106 heartbeat IPC: 0.815423 cumulative IPC: 0.792547 (Simulation time: 0 hr 10 min 51 sec) 
Heartbeat CPU 0 instructions: 320000002 cycles: 323823667 heartbeat IPC: 0.812443 cumulative IPC: 0.79343 (Simulation time: 0 hr 11 min 10 sec) 
Heartbeat CPU 0 instructions: 330000000 cycles: 336071075 heartbeat IPC: 0.816499 cumulative IPC: 0.794406 (Simulation time: 0 hr 11 min 28 sec) 
Heartbeat CPU 0 instructions: 340000001 cycles: 348367167 heartbeat IPC: 0.813267 cumulative IPC: 0.795174 (Simulation time: 0 hr 11 min 47 sec) 
Heartbeat CPU 0 instructions: 350000001 cycles: 360713369 heartbeat IPC: 0.809966 cumulative IPC: 0.795755 (Simulation time: 0 hr 12 min 5 sec) 
Heartbeat CPU 0 instructions: 360000003 cycles: 373033237 heartbeat IPC: 0.811697 cumulative IPC: 0.796357 (Simulation time: 0 hr 12 min 24 sec) 
Heartbeat CPU 0 instructions: 370000002 cycles: 385305765 heartbeat IPC: 0.814828 cumulative IPC: 0.797026 (Simulation time: 0 hr 12 min 42 sec) 
Heartbeat CPU 0 instructions: 380000001 cycles: 397672616 heartbeat IPC: 0.808613 cumulative IPC: 0.797434 (Simulation time: 0 hr 13 min 1 sec) 
Heartbeat CPU 0 instructions: 390000001 cycles: 410046146 heartbeat IPC: 0.808177 cumulative IPC: 0.7978 (Simulation time: 0 hr 13 min 20 sec) 
Heartbeat CPU 0 instructions: 400000000 cycles: 422369346 heartbeat IPC: 0.811477 cumulative IPC: 0.798248 (Simulation time: 0 hr 13 min 38 sec) 
Heartbeat CPU 0 instructions: 410000001 cycles: 434637604 heartbeat IPC: 0.815112 cumulative IPC: 0.798782 (Simulation time: 0 hr 13 min 57 sec) 
Heartbeat CPU 0 instructions: 420000000 cycles: 447003684 heartbeat IPC: 0.808664 cumulative IPC: 0.799087 (Simulation time: 0 hr 14 min 15 sec) 
Heartbeat CPU 0 instructions: 430000001 cycles: 459423395 heartbeat IPC: 0.805172 cumulative IPC: 0.79927 (Simulation time: 0 hr 14 min 34 sec) 
Heartbeat CPU 0 instructions: 440000000 cycles: 471751559 heartbeat IPC: 0.811151 cumulative IPC: 0.799614 (Simulation time: 0 hr 14 min 52 sec) 
Heartbeat CPU 0 instructions: 450000002 cycles: 484121025 heartbeat IPC: 0.808442 cumulative IPC: 0.799864 (Simulation time: 0 hr 15 min 11 sec) 
Heartbeat CPU 0 instructions: 460000000 cycles: 496456006 heartbeat IPC: 0.810702 cumulative IPC: 0.800161 (Simulation time: 0 hr 15 min 29 sec) 
Heartbeat CPU 0 instructions: 470000000 cycles: 508838039 heartbeat IPC: 0.807622 cumulative IPC: 0.800361 (Simulation time: 0 hr 15 min 48 sec) 
Heartbeat CPU 0 instructions: 480000001 cycles: 521218793 heartbeat IPC: 0.807705 cumulative IPC: 0.800552 (Simulation time: 0 hr 16 min 6 sec) 
Heartbeat CPU 0 instructions: 490000000 cycles: 533395934 heartbeat IPC: 0.821211 cumulative IPC: 0.801069 (Simulation time: 0 hr 16 min 25 sec) 
Heartbeat CPU 0 instructions: 500000002 cycles: 545653504 heartbeat IPC: 0.815823 cumulative IPC: 0.801431 (Simulation time: 0 hr 16 min 43 sec) 
Heartbeat CPU 0 instructions: 510000003 cycles: 557984774 heartbeat IPC: 0.810947 cumulative IPC: 0.801661 (Simulation time: 0 hr 17 min 2 sec) 
Heartbeat CPU 0 instructions: 520000001 cycles: 570406564 heartbeat IPC: 0.805037 cumulative IPC: 0.801741 (Simulation time: 0 hr 17 min 21 sec) 
Heartbeat CPU 0 instructions: 530000002 cycles: 582772661 heartbeat IPC: 0.808663 cumulative IPC: 0.8019 (Simulation time: 0 hr 17 min 39 sec) 
Heartbeat CPU 0 instructions: 540000001 cycles: 595102983 heartbeat IPC: 0.811009 cumulative IPC: 0.802105 (Simulation time: 0 hr 17 min 58 sec) 
Heartbeat CPU 0 instructions: 550000000 cycles: 607426102 heartbeat IPC: 0.811483 cumulative IPC: 0.802311 (Simulation time: 0 hr 18 min 16 sec) 
Heartbeat CPU 0 instructions: 560000001 cycles: 619778747 heartbeat IPC: 0.809543 cumulative IPC: 0.802467 (Simulation time: 0 hr 18 min 35 sec) 
Heartbeat CPU 0 instructions: 570000001 cycles: 632124941 heartbeat IPC: 0.809966 cumulative IPC: 0.802625 (Simulation time: 0 hr 18 min 53 sec) 
Heartbeat CPU 0 instructions: 580000000 cycles: 644401425 heartbeat IPC: 0.814565 cumulative IPC: 0.80287 (Simulation time: 0 hr 19 min 12 sec) 
Heartbeat CPU 0 instructions: 590000000 cycles: 656726746 heartbeat IPC: 0.811338 cumulative IPC: 0.803041 (Simulation time: 0 hr 19 min 30 sec) 
Heartbeat CPU 0 instructions: 600000001 cycles: 669029964 heartbeat IPC: 0.812796 cumulative IPC: 0.803234 (Simulation time: 0 hr 19 min 49 sec) 
Heartbeat CPU 0 instructions: 610000002 cycles: 681368788 heartbeat IPC: 0.81045 cumulative IPC: 0.803374 (Simulation time: 0 hr 20 min 7 sec) 
Heartbeat CPU 0 instructions: 620000002 cycles: 693726681 heartbeat IPC: 0.809199 cumulative IPC: 0.803486 (Simulation time: 0 hr 20 min 26 sec) 
Heartbeat CPU 0 instructions: 630000001 cycles: 706084747 heartbeat IPC: 0.809188 cumulative IPC: 0.803593 (Simulation time: 0 hr 20 min 44 sec) 
Heartbeat CPU 0 instructions: 640000002 cycles: 718477051 heartbeat IPC: 0.806953 cumulative IPC: 0.803654 (Simulation time: 0 hr 21 min 3 sec) 
Heartbeat CPU 0 instructions: 650000001 cycles: 730827833 heartbeat IPC: 0.809665 cumulative IPC: 0.803763 (Simulation time: 0 hr 21 min 21 sec) 
Heartbeat CPU 0 instructions: 660000000 cycles: 743141578 heartbeat IPC: 0.812101 cumulative IPC: 0.80391 (Simulation time: 0 hr 21 min 40 sec) 
Heartbeat CPU 0 instructions: 670000000 cycles: 755486995 heartbeat IPC: 0.810017 cumulative IPC: 0.804017 (Simulation time: 0 hr 21 min 58 sec) 
Heartbeat CPU 0 instructions: 680000003 cycles: 767854630 heartbeat IPC: 0.808562 cumulative IPC: 0.804095 (Simulation time: 0 hr 22 min 17 sec) 
Heartbeat CPU 0 instructions: 690000000 cycles: 780190087 heartbeat IPC: 0.810671 cumulative IPC: 0.804205 (Simulation time: 0 hr 22 min 35 sec) 
Heartbeat CPU 0 instructions: 700000002 cycles: 792541953 heartbeat IPC: 0.809594 cumulative IPC: 0.804294 (Simulation time: 0 hr 22 min 54 sec) 
Heartbeat CPU 0 instructions: 710000002 cycles: 804823595 heartbeat IPC: 0.814223 cumulative IPC: 0.804455 (Simulation time: 0 hr 23 min 12 sec) 
Heartbeat CPU 0 instructions: 720000001 cycles: 817208411 heartbeat IPC: 0.80744 cumulative IPC: 0.804503 (Simulation time: 0 hr 23 min 31 sec) 
Heartbeat CPU 0 instructions: 730000000 cycles: 829573253 heartbeat IPC: 0.808745 cumulative IPC: 0.80457 (Simulation time: 0 hr 23 min 49 sec) 
Heartbeat CPU 0 instructions: 740000002 cycles: 841919076 heartbeat IPC: 0.809991 cumulative IPC: 0.804654 (Simulation time: 0 hr 24 min 8 sec) 
Heartbeat CPU 0 instructions: 750000001 cycles: 854292562 heartbeat IPC: 0.80818 cumulative IPC: 0.804708 (Simulation time: 0 hr 24 min 26 sec) 
Heartbeat CPU 0 instructions: 760000002 cycles: 866639559 heartbeat IPC: 0.809914 cumulative IPC: 0.804787 (Simulation time: 0 hr 24 min 45 sec) 
Heartbeat CPU 0 instructions: 770000000 cycles: 878950417 heartbeat IPC: 0.812291 cumulative IPC: 0.804898 (Simulation time: 0 hr 25 min 3 sec) 
Heartbeat CPU 0 instructions: 780000000 cycles: 891317650 heartbeat IPC: 0.808588 cumulative IPC: 0.804952 (Simulation time: 0 hr 25 min 22 sec) 
Heartbeat CPU 0 instructions: 790000000 cycles: 903617202 heartbeat IPC: 0.813038 cumulative IPC: 0.805068 (Simulation time: 0 hr 25 min 40 sec) 
Heartbeat CPU 0 instructions: 800000001 cycles: 915943161 heartbeat IPC: 0.811296 cumulative IPC: 0.805156 (Simulation time: 0 hr 25 min 59 sec) 
Heartbeat CPU 0 instructions: 810000001 cycles: 928254632 heartbeat IPC: 0.812251 cumulative IPC: 0.805255 (Simulation time: 0 hr 26 min 17 sec) 
Heartbeat CPU 0 instructions: 820000000 cycles: 940600392 heartbeat IPC: 0.809995 cumulative IPC: 0.805321 (Simulation time: 0 hr 26 min 36 sec) 
Heartbeat CPU 0 instructions: 830000000 cycles: 952896375 heartbeat IPC: 0.813274 cumulative IPC: 0.805428 (Simulation time: 0 hr 26 min 54 sec) 
Heartbeat CPU 0 instructions: 840000001 cycles: 965158815 heartbeat IPC: 0.815498 cumulative IPC: 0.805563 (Simulation time: 0 hr 27 min 13 sec) 
Heartbeat CPU 0 instructions: 850000000 cycles: 977474654 heartbeat IPC: 0.811962 cumulative IPC: 0.805648 (Simulation time: 0 hr 27 min 32 sec) 
Heartbeat CPU 0 instructions: 860000000 cycles: 989775099 heartbeat IPC: 0.812979 cumulative IPC: 0.805743 (Simulation time: 0 hr 27 min 51 sec) 
Heartbeat CPU 0 instructions: 870000002 cycles: 1002107379 heartbeat IPC: 0.81088 cumulative IPC: 0.805809 (Simulation time: 0 hr 28 min 10 sec) 
Heartbeat CPU 0 instructions: 880000000 cycles: 1014447599 heartbeat IPC: 0.810358 cumulative IPC: 0.805867 (Simulation time: 0 hr 28 min 29 sec) 
Heartbeat CPU 0 instructions: 890000002 cycles: 1026680049 heartbeat IPC: 0.817498 cumulative IPC: 0.806013 (Simulation time: 0 hr 28 min 48 sec) 
Heartbeat CPU 0 instructions: 900000002 cycles: 1038881373 heartbeat IPC: 0.819583 cumulative IPC: 0.806179 (Simulation time: 0 hr 29 min 7 sec) 
Heartbeat CPU 0 instructions: 910000001 cycles: 1051118155 heartbeat IPC: 0.817208 cumulative IPC: 0.806314 (Simulation time: 0 hr 29 min 26 sec) 
Heartbeat CPU 0 instructions: 920000001 cycles: 1063431980 heartbeat IPC: 0.812095 cumulative IPC: 0.806384 (Simulation time: 0 hr 29 min 45 sec) 
Heartbeat CPU 0 instructions: 930000002 cycles: 1075755109 heartbeat IPC: 0.811482 cumulative IPC: 0.806445 (Simulation time: 0 hr 30 min 4 sec) 
Heartbeat CPU 0 instructions: 940000000 cycles: 1087984097 heartbeat IPC: 0.817729 cumulative IPC: 0.806577 (Simulation time: 0 hr 30 min 24 sec) 
Heartbeat CPU 0 instructions: 950000000 cycles: 1100222977 heartbeat IPC: 0.817068 cumulative IPC: 0.806699 (Simulation time: 0 hr 30 min 43 sec) 
Heartbeat CPU 0 instructions: 960000001 cycles: 1119210344 heartbeat IPC: 0.526666 cumulative IPC: 0.801742 (Simulation time: 0 hr 31 min 7 sec) 
Heartbeat CPU 0 instructions: 970000000 cycles: 1131449666 heartbeat IPC: 0.817039 cumulative IPC: 0.801915 (Simulation time: 0 hr 31 min 26 sec) 
Heartbeat CPU 0 instructions: 980000002 cycles: 1143656620 heartbeat IPC: 0.819205 cumulative IPC: 0.802107 (Simulation time: 0 hr 31 min 45 sec) 
Heartbeat CPU 0 instructions: 990000000 cycles: 1155883664 heartbeat IPC: 0.817859 cumulative IPC: 0.802281 (Simulation time: 0 hr 32 min 4 sec) 
Heartbeat CPU 0 instructions: 1000000000 cycles: 1168146949 heartbeat IPC: 0.815442 cumulative IPC: 0.802425 (Simulation time: 0 hr 32 min 23 sec) 
Heartbeat CPU 0 instructions: 1010000002 cycles: 1180366705 heartbeat IPC: 0.818347 cumulative IPC: 0.802596 (Simulation time: 0 hr 32 min 42 sec) 
Heartbeat CPU 0 instructions: 1020000001 cycles: 1192581436 heartbeat IPC: 0.818684 cumulative IPC: 0.802768 (Simulation time: 0 hr 33 min 1 sec) 
Heartbeat CPU 0 instructions: 1030000000 cycles: 1204822796 heartbeat IPC: 0.816903 cumulative IPC: 0.802917 (Simulation time: 0 hr 33 min 20 sec) 
Heartbeat CPU 0 instructions: 1040000003 cycles: 1217046431 heartbeat IPC: 0.818088 cumulative IPC: 0.803076 (Simulation time: 0 hr 33 min 39 sec) 
Heartbeat CPU 0 instructions: 1050000003 cycles: 1229345078 heartbeat IPC: 0.813098 cumulative IPC: 0.80318 (Simulation time: 0 hr 33 min 59 sec) 
Heartbeat CPU 0 instructions: 1060000001 cycles: 1241551776 heartbeat IPC: 0.819222 cumulative IPC: 0.803344 (Simulation time: 0 hr 34 min 18 sec) 
Heartbeat CPU 0 instructions: 1070000000 cycles: 1253775821 heartbeat IPC: 0.81806 cumulative IPC: 0.803493 (Simulation time: 0 hr 34 min 37 sec) 
Heartbeat CPU 0 instructions: 1080000001 cycles: 1266041181 heartbeat IPC: 0.815304 cumulative IPC: 0.803612 (Simulation time: 0 hr 34 min 56 sec) 
Heartbeat CPU 0 instructions: 1090000000 cycles: 1278323286 heartbeat IPC: 0.814193 cumulative IPC: 0.803717 (Simulation time: 0 hr 35 min 15 sec) 
Heartbeat CPU 0 instructions: 1100000000 cycles: 1290515182 heartbeat IPC: 0.820217 cumulative IPC: 0.803879 (Simulation time: 0 hr 35 min 34 sec) 
Finished CPU 0 instructions: 1000000000 cycles: 1243968699 cumulative IPC: 0.803879 (Simulation time: 0 hr 35 min 34 sec) 

ChampSim completed all CPUs

Region of Interest Statistics

CPU 0 cumulative IPC: 0.803879 instructions: 1000000000 cycles: 1243968699
L1D TOTAL     ACCESS:  316198001  HIT:  313242101  MISS:    2955900
L1D LOAD      ACCESS:  201702929  HIT:  199100659  MISS:    2602270
L1D RFO       ACCESS:  114495072  HIT:  114141442  MISS:     353630
L1D PREFETCH  ACCESS:          0  HIT:          0  MISS:          0
L1D WRITEBACK ACCESS:          0  HIT:          0  MISS:          0
L1D PREFETCH  REQUESTED:          0  ISSUED:          0  USEFUL:          0  USELESS:          0
L1D AVERAGE MISS LATENCY: 20.861 cycles
L1I TOTAL     ACCESS:  183739339  HIT:  183682721  MISS:      56618
L1I LOAD      ACCESS:  183739339  HIT:  183682721  MISS:      56618
L1I RFO       ACCESS:          0  HIT:          0  MISS:          0
L1I PREFETCH  ACCESS:          0  HIT:          0  MISS:          0
L1I WRITEBACK ACCESS:          0  HIT:          0  MISS:          0
L1I PREFETCH  REQUESTED:          0  ISSUED:          0  USEFUL:          0  USELESS:          0
L1I AVERAGE MISS LATENCY: 18.4115 cycles
L2C TOTAL     ACCESS:    3594695  HIT:    3387221  MISS:     207474
L2C LOAD      ACCESS:    2658729  HIT:    2521460  MISS:     137269
L2C RFO       ACCESS:     353625  HIT:     283510  MISS:      70115
L2C PREFETCH  ACCESS:          0  HIT:          0  MISS:          0
L2C WRITEBACK ACCESS:     582341  HIT:     582251  MISS:         90
L2C PREFETCH  REQUESTED:          0  ISSUED:          0  USEFUL:          0  USELESS:          0
L2C AVERAGE MISS LATENCY: 127.606 cycles
LLC TOTAL     ACCESS:     285684  HIT:     170899  MISS:     114785
LLC LOAD      ACCESS:     137268  HIT:      79152  MISS:      58116
LLC RFO       ACCESS:      70115  HIT:      14094  MISS:      56021
LLC PREFETCH  ACCESS:          0  HIT:          0  MISS:          0
LLC WRITEBACK ACCESS:      78301  HIT:      77653  MISS:        648
LLC PREFETCH  REQUESTED:          0  ISSUED:          0  USEFUL:          0  USELESS:          0
LLC AVERAGE MISS LATENCY: 158.118 cycles
Major fault: 0 Minor fault: 1740

DRAM Statistics
 CHANNEL 0
 RQ ROW_BUFFER_HIT:      33797  ROW_BUFFER_MISS:      80284
 DBUS_CONGESTED:      27297
 WQ ROW_BUFFER_HIT:      30879  ROW_BUFFER_MISS:       9915  FULL:          0

 AVG_CONGESTED_CYCLE: 6

CPU 0 Branch Prediction Accuracy: 87.4973% MPKI: 20.452 Average ROB Occupancy at Mispredict: 22.7014

Branch types
NOT_BRANCH: 836419616 83.642%
BRANCH_DIRECT_JUMP: 5445299 0.54453%
BRANCH_INDIRECT: 6861 0.0006861%
BRANCH_CONDITIONAL: 99292811 9.92928%
BRANCH_DIRECT_CALL: 29417492 2.94175%
BRANCH_INDIRECT_CALL: 78 7.8e-06%
BRANCH_RETURN: 29417568 2.94176%
BRANCH_OTHER: 0 0%

