
*** ChampSim Multicore Out-of-Order Simulator ***

Warmup Instructions: 100000000
Simulation Instructions: 1000000000
Number of CPUs: 1
LLC sets: 2048
LLC ways: 16
Off-chip DRAM Size: 4096 MB Channels: 1 Width: 64-bit Data Rate: 3200 MT/s

CPU 0 runs /scratch/user/kevin.weston/dpc3-traces/641.champsimtrace.xz
CPU 0 Bimodal branch predictor
Initialize RRPV
Initialize PRRIP state
Heartbeat CPU 0 instructions: 10000003 cycles: 4649865 heartbeat IPC: 2.1506 cumulative IPC: 2.1506 (Simulation time: 0 hr 0 min 24 sec) 
Heartbeat CPU 0 instructions: 20000003 cycles: 9296101 heartbeat IPC: 2.15228 cumulative IPC: 2.15144 (Simulation time: 0 hr 0 min 47 sec) 
Heartbeat CPU 0 instructions: 30000001 cycles: 13960901 heartbeat IPC: 2.14371 cumulative IPC: 2.14886 (Simulation time: 0 hr 1 min 11 sec) 
Heartbeat CPU 0 instructions: 40000002 cycles: 18612339 heartbeat IPC: 2.14987 cumulative IPC: 2.14911 (Simulation time: 0 hr 1 min 34 sec) 
Heartbeat CPU 0 instructions: 50000001 cycles: 23258685 heartbeat IPC: 2.15223 cumulative IPC: 2.14973 (Simulation time: 0 hr 1 min 58 sec) 
Heartbeat CPU 0 instructions: 60000000 cycles: 27917034 heartbeat IPC: 2.14668 cumulative IPC: 2.14923 (Simulation time: 0 hr 2 min 21 sec) 
Heartbeat CPU 0 instructions: 70000001 cycles: 32574836 heartbeat IPC: 2.14694 cumulative IPC: 2.1489 (Simulation time: 0 hr 2 min 45 sec) 
Heartbeat CPU 0 instructions: 80000001 cycles: 37238949 heartbeat IPC: 2.14403 cumulative IPC: 2.14829 (Simulation time: 0 hr 3 min 9 sec) 
Heartbeat CPU 0 instructions: 90000003 cycles: 41905392 heartbeat IPC: 2.14296 cumulative IPC: 2.1477 (Simulation time: 0 hr 3 min 32 sec) 
Heartbeat CPU 0 instructions: 100000000 cycles: 46546062 heartbeat IPC: 2.15486 cumulative IPC: 2.14841 (Simulation time: 0 hr 3 min 56 sec) 

Warmup complete CPU 0 instructions: 100000004 cycles: 46546063 (Simulation time: 0 hr 3 min 56 sec) 

Heartbeat CPU 0 instructions: 110000000 cycles: 58832944 heartbeat IPC: 0.813876 cumulative IPC: 0.813876 (Simulation time: 0 hr 4 min 13 sec) 
Heartbeat CPU 0 instructions: 120000001 cycles: 76095455 heartbeat IPC: 0.57929 cumulative IPC: 0.676833 (Simulation time: 0 hr 4 min 33 sec) 
Heartbeat CPU 0 instructions: 130000000 cycles: 88564509 heartbeat IPC: 0.801985 cumulative IPC: 0.713972 (Simulation time: 0 hr 4 min 50 sec) 
Heartbeat CPU 0 instructions: 140000000 cycles: 100938477 heartbeat IPC: 0.808148 cumulative IPC: 0.735397 (Simulation time: 0 hr 5 min 7 sec) 
Heartbeat CPU 0 instructions: 150000001 cycles: 113259483 heartbeat IPC: 0.811622 cumulative IPC: 0.749474 (Simulation time: 0 hr 5 min 24 sec) 
Heartbeat CPU 0 instructions: 160000002 cycles: 125639351 heartbeat IPC: 0.807763 cumulative IPC: 0.758598 (Simulation time: 0 hr 5 min 41 sec) 
Heartbeat CPU 0 instructions: 170000001 cycles: 138088842 heartbeat IPC: 0.803246 cumulative IPC: 0.76467 (Simulation time: 0 hr 5 min 58 sec) 
Heartbeat CPU 0 instructions: 180000000 cycles: 150483520 heartbeat IPC: 0.806798 cumulative IPC: 0.769694 (Simulation time: 0 hr 6 min 16 sec) 
Heartbeat CPU 0 instructions: 190000002 cycles: 162871094 heartbeat IPC: 0.807261 cumulative IPC: 0.773694 (Simulation time: 0 hr 6 min 32 sec) 
Heartbeat CPU 0 instructions: 200000000 cycles: 175239029 heartbeat IPC: 0.808542 cumulative IPC: 0.777043 (Simulation time: 0 hr 6 min 50 sec) 
Heartbeat CPU 0 instructions: 210000001 cycles: 187526593 heartbeat IPC: 0.813831 cumulative IPC: 0.78025 (Simulation time: 0 hr 7 min 7 sec) 
Heartbeat CPU 0 instructions: 220000000 cycles: 199906654 heartbeat IPC: 0.80775 cumulative IPC: 0.78247 (Simulation time: 0 hr 7 min 24 sec) 
Heartbeat CPU 0 instructions: 230000000 cycles: 212316495 heartbeat IPC: 0.805812 cumulative IPC: 0.784217 (Simulation time: 0 hr 7 min 41 sec) 
Heartbeat CPU 0 instructions: 240000001 cycles: 224705210 heartbeat IPC: 0.807186 cumulative IPC: 0.785814 (Simulation time: 0 hr 7 min 58 sec) 
Heartbeat CPU 0 instructions: 250000002 cycles: 237051379 heartbeat IPC: 0.809968 cumulative IPC: 0.78738 (Simulation time: 0 hr 8 min 15 sec) 
Heartbeat CPU 0 instructions: 260000000 cycles: 249365826 heartbeat IPC: 0.812054 cumulative IPC: 0.788878 (Simulation time: 0 hr 8 min 32 sec) 
Heartbeat CPU 0 instructions: 270000000 cycles: 261710424 heartbeat IPC: 0.810071 cumulative IPC: 0.790094 (Simulation time: 0 hr 8 min 49 sec) 
Heartbeat CPU 0 instructions: 280000000 cycles: 274056923 heartbeat IPC: 0.809946 cumulative IPC: 0.791171 (Simulation time: 0 hr 9 min 6 sec) 
Heartbeat CPU 0 instructions: 290000000 cycles: 286304976 heartbeat IPC: 0.816456 cumulative IPC: 0.792463 (Simulation time: 0 hr 9 min 23 sec) 
Heartbeat CPU 0 instructions: 300000001 cycles: 298615988 heartbeat IPC: 0.812281 cumulative IPC: 0.793431 (Simulation time: 0 hr 9 min 40 sec) 
Heartbeat CPU 0 instructions: 310000000 cycles: 310880144 heartbeat IPC: 0.815384 cumulative IPC: 0.794449 (Simulation time: 0 hr 9 min 57 sec) 
Heartbeat CPU 0 instructions: 320000002 cycles: 323187612 heartbeat IPC: 0.812515 cumulative IPC: 0.795253 (Simulation time: 0 hr 10 min 14 sec) 
Heartbeat CPU 0 instructions: 330000000 cycles: 335435781 heartbeat IPC: 0.816448 cumulative IPC: 0.796152 (Simulation time: 0 hr 10 min 31 sec) 
Heartbeat CPU 0 instructions: 340000001 cycles: 347730868 heartbeat IPC: 0.813333 cumulative IPC: 0.796853 (Simulation time: 0 hr 10 min 48 sec) 
Heartbeat CPU 0 instructions: 350000001 cycles: 360080701 heartbeat IPC: 0.809728 cumulative IPC: 0.79736 (Simulation time: 0 hr 11 min 5 sec) 
Heartbeat CPU 0 instructions: 360000003 cycles: 372389349 heartbeat IPC: 0.812437 cumulative IPC: 0.79793 (Simulation time: 0 hr 11 min 22 sec) 
Heartbeat CPU 0 instructions: 370000002 cycles: 384658291 heartbeat IPC: 0.815066 cumulative IPC: 0.798551 (Simulation time: 0 hr 11 min 39 sec) 
Heartbeat CPU 0 instructions: 380000001 cycles: 397024833 heartbeat IPC: 0.808633 cumulative IPC: 0.798907 (Simulation time: 0 hr 11 min 56 sec) 
Heartbeat CPU 0 instructions: 390000001 cycles: 409409502 heartbeat IPC: 0.80745 cumulative IPC: 0.799199 (Simulation time: 0 hr 12 min 13 sec) 
Heartbeat CPU 0 instructions: 400000000 cycles: 421729516 heartbeat IPC: 0.811687 cumulative IPC: 0.799609 (Simulation time: 0 hr 12 min 31 sec) 
Heartbeat CPU 0 instructions: 410000001 cycles: 433999064 heartbeat IPC: 0.815026 cumulative IPC: 0.800097 (Simulation time: 0 hr 12 min 48 sec) 
Heartbeat CPU 0 instructions: 420000000 cycles: 446360972 heartbeat IPC: 0.808937 cumulative IPC: 0.80037 (Simulation time: 0 hr 13 min 5 sec) 
Heartbeat CPU 0 instructions: 430000001 cycles: 458774927 heartbeat IPC: 0.805545 cumulative IPC: 0.800526 (Simulation time: 0 hr 13 min 22 sec) 
Heartbeat CPU 0 instructions: 440000000 cycles: 471118669 heartbeat IPC: 0.810127 cumulative IPC: 0.800805 (Simulation time: 0 hr 13 min 39 sec) 
Heartbeat CPU 0 instructions: 450000002 cycles: 483488814 heartbeat IPC: 0.808398 cumulative IPC: 0.80102 (Simulation time: 0 hr 13 min 56 sec) 
Heartbeat CPU 0 instructions: 460000000 cycles: 495824940 heartbeat IPC: 0.810627 cumulative IPC: 0.801284 (Simulation time: 0 hr 14 min 13 sec) 
Heartbeat CPU 0 instructions: 470000000 cycles: 508205891 heartbeat IPC: 0.807692 cumulative IPC: 0.801456 (Simulation time: 0 hr 14 min 30 sec) 
Heartbeat CPU 0 instructions: 480000001 cycles: 520586807 heartbeat IPC: 0.807695 cumulative IPC: 0.801619 (Simulation time: 0 hr 14 min 47 sec) 
Heartbeat CPU 0 instructions: 490000000 cycles: 532761968 heartbeat IPC: 0.821344 cumulative IPC: 0.802113 (Simulation time: 0 hr 15 min 4 sec) 
Heartbeat CPU 0 instructions: 500000002 cycles: 545019916 heartbeat IPC: 0.815797 cumulative IPC: 0.802449 (Simulation time: 0 hr 15 min 21 sec) 
Heartbeat CPU 0 instructions: 510000003 cycles: 557350089 heartbeat IPC: 0.811019 cumulative IPC: 0.802656 (Simulation time: 0 hr 15 min 38 sec) 
Heartbeat CPU 0 instructions: 520000001 cycles: 569771697 heartbeat IPC: 0.805049 cumulative IPC: 0.802713 (Simulation time: 0 hr 15 min 55 sec) 
Heartbeat CPU 0 instructions: 530000002 cycles: 582139589 heartbeat IPC: 0.808545 cumulative IPC: 0.802848 (Simulation time: 0 hr 16 min 12 sec) 
Heartbeat CPU 0 instructions: 540000001 cycles: 594469684 heartbeat IPC: 0.811024 cumulative IPC: 0.803032 (Simulation time: 0 hr 16 min 29 sec) 
Heartbeat CPU 0 instructions: 550000000 cycles: 606794475 heartbeat IPC: 0.811373 cumulative IPC: 0.803215 (Simulation time: 0 hr 16 min 46 sec) 
Heartbeat CPU 0 instructions: 560000001 cycles: 619147830 heartbeat IPC: 0.809497 cumulative IPC: 0.803351 (Simulation time: 0 hr 17 min 3 sec) 
Heartbeat CPU 0 instructions: 570000001 cycles: 631493662 heartbeat IPC: 0.80999 cumulative IPC: 0.803491 (Simulation time: 0 hr 17 min 20 sec) 
Heartbeat CPU 0 instructions: 580000000 cycles: 643770038 heartbeat IPC: 0.814573 cumulative IPC: 0.803719 (Simulation time: 0 hr 17 min 37 sec) 
Heartbeat CPU 0 instructions: 590000000 cycles: 656095515 heartbeat IPC: 0.811328 cumulative IPC: 0.803872 (Simulation time: 0 hr 17 min 54 sec) 
Heartbeat CPU 0 instructions: 600000001 cycles: 668399548 heartbeat IPC: 0.812742 cumulative IPC: 0.804048 (Simulation time: 0 hr 18 min 11 sec) 
Heartbeat CPU 0 instructions: 610000002 cycles: 680738708 heartbeat IPC: 0.810428 cumulative IPC: 0.804172 (Simulation time: 0 hr 18 min 28 sec) 
Heartbeat CPU 0 instructions: 620000002 cycles: 693098238 heartbeat IPC: 0.809092 cumulative IPC: 0.804266 (Simulation time: 0 hr 18 min 45 sec) 
Heartbeat CPU 0 instructions: 630000001 cycles: 705456130 heartbeat IPC: 0.809199 cumulative IPC: 0.804359 (Simulation time: 0 hr 19 min 2 sec) 
Heartbeat CPU 0 instructions: 640000002 cycles: 717848956 heartbeat IPC: 0.806919 cumulative IPC: 0.804406 (Simulation time: 0 hr 19 min 19 sec) 
Heartbeat CPU 0 instructions: 650000001 cycles: 730199606 heartbeat IPC: 0.809674 cumulative IPC: 0.804501 (Simulation time: 0 hr 19 min 36 sec) 
Heartbeat CPU 0 instructions: 660000000 cycles: 742512199 heartbeat IPC: 0.812177 cumulative IPC: 0.804637 (Simulation time: 0 hr 19 min 53 sec) 
Heartbeat CPU 0 instructions: 670000000 cycles: 754856392 heartbeat IPC: 0.810098 cumulative IPC: 0.804732 (Simulation time: 0 hr 20 min 10 sec) 
Heartbeat CPU 0 instructions: 680000003 cycles: 767223865 heartbeat IPC: 0.808573 cumulative IPC: 0.804798 (Simulation time: 0 hr 20 min 27 sec) 
Heartbeat CPU 0 instructions: 690000000 cycles: 779559666 heartbeat IPC: 0.810648 cumulative IPC: 0.804896 (Simulation time: 0 hr 20 min 44 sec) 
Heartbeat CPU 0 instructions: 700000002 cycles: 791910919 heartbeat IPC: 0.809635 cumulative IPC: 0.804975 (Simulation time: 0 hr 21 min 1 sec) 
Heartbeat CPU 0 instructions: 710000002 cycles: 804193206 heartbeat IPC: 0.814181 cumulative IPC: 0.805124 (Simulation time: 0 hr 21 min 18 sec) 
Heartbeat CPU 0 instructions: 720000001 cycles: 816578479 heartbeat IPC: 0.80741 cumulative IPC: 0.805161 (Simulation time: 0 hr 21 min 35 sec) 
Heartbeat CPU 0 instructions: 730000000 cycles: 828945357 heartbeat IPC: 0.808611 cumulative IPC: 0.805215 (Simulation time: 0 hr 21 min 52 sec) 
Heartbeat CPU 0 instructions: 740000002 cycles: 841292085 heartbeat IPC: 0.809931 cumulative IPC: 0.805289 (Simulation time: 0 hr 22 min 9 sec) 
Heartbeat CPU 0 instructions: 750000001 cycles: 853665799 heartbeat IPC: 0.808165 cumulative IPC: 0.805333 (Simulation time: 0 hr 22 min 26 sec) 
Heartbeat CPU 0 instructions: 760000002 cycles: 866013826 heartbeat IPC: 0.809846 cumulative IPC: 0.805401 (Simulation time: 0 hr 22 min 43 sec) 
Heartbeat CPU 0 instructions: 770000000 cycles: 878324349 heartbeat IPC: 0.812313 cumulative IPC: 0.805503 (Simulation time: 0 hr 23 min 0 sec) 
Heartbeat CPU 0 instructions: 780000000 cycles: 890690992 heartbeat IPC: 0.808627 cumulative IPC: 0.805549 (Simulation time: 0 hr 23 min 17 sec) 
Heartbeat CPU 0 instructions: 790000000 cycles: 902990040 heartbeat IPC: 0.813071 cumulative IPC: 0.805657 (Simulation time: 0 hr 23 min 34 sec) 
Heartbeat CPU 0 instructions: 800000001 cycles: 915315572 heartbeat IPC: 0.811324 cumulative IPC: 0.805737 (Simulation time: 0 hr 23 min 51 sec) 
Heartbeat CPU 0 instructions: 810000001 cycles: 927626181 heartbeat IPC: 0.812307 cumulative IPC: 0.805829 (Simulation time: 0 hr 24 min 8 sec) 
Heartbeat CPU 0 instructions: 820000000 cycles: 939971064 heartbeat IPC: 0.810052 cumulative IPC: 0.805887 (Simulation time: 0 hr 24 min 25 sec) 
Heartbeat CPU 0 instructions: 830000000 cycles: 952267352 heartbeat IPC: 0.813254 cumulative IPC: 0.805987 (Simulation time: 0 hr 24 min 42 sec) 
Heartbeat CPU 0 instructions: 840000001 cycles: 964528642 heartbeat IPC: 0.815575 cumulative IPC: 0.806116 (Simulation time: 0 hr 24 min 59 sec) 
Heartbeat CPU 0 instructions: 850000000 cycles: 976845883 heartbeat IPC: 0.81187 cumulative IPC: 0.806192 (Simulation time: 0 hr 25 min 16 sec) 
Heartbeat CPU 0 instructions: 860000000 cycles: 989146167 heartbeat IPC: 0.812989 cumulative IPC: 0.80628 (Simulation time: 0 hr 25 min 33 sec) 
Heartbeat CPU 0 instructions: 870000002 cycles: 1001478495 heartbeat IPC: 0.810877 cumulative IPC: 0.80634 (Simulation time: 0 hr 25 min 50 sec) 
Heartbeat CPU 0 instructions: 880000000 cycles: 1013819488 heartbeat IPC: 0.810307 cumulative IPC: 0.80639 (Simulation time: 0 hr 26 min 7 sec) 
Heartbeat CPU 0 instructions: 890000002 cycles: 1026055604 heartbeat IPC: 0.817253 cumulative IPC: 0.806526 (Simulation time: 0 hr 26 min 24 sec) 
Heartbeat CPU 0 instructions: 900000002 cycles: 1038259869 heartbeat IPC: 0.819386 cumulative IPC: 0.806684 (Simulation time: 0 hr 26 min 41 sec) 
Heartbeat CPU 0 instructions: 910000001 cycles: 1050497589 heartbeat IPC: 0.817146 cumulative IPC: 0.806812 (Simulation time: 0 hr 26 min 58 sec) 
Heartbeat CPU 0 instructions: 920000001 cycles: 1062812971 heartbeat IPC: 0.811993 cumulative IPC: 0.806875 (Simulation time: 0 hr 27 min 15 sec) 
Heartbeat CPU 0 instructions: 930000002 cycles: 1075137092 heartbeat IPC: 0.811417 cumulative IPC: 0.806929 (Simulation time: 0 hr 27 min 32 sec) 
Heartbeat CPU 0 instructions: 940000000 cycles: 1087368867 heartbeat IPC: 0.817543 cumulative IPC: 0.807054 (Simulation time: 0 hr 27 min 49 sec) 
Heartbeat CPU 0 instructions: 950000000 cycles: 1099609805 heartbeat IPC: 0.816931 cumulative IPC: 0.807169 (Simulation time: 0 hr 28 min 6 sec) 
Heartbeat CPU 0 instructions: 960000001 cycles: 1117426665 heartbeat IPC: 0.561266 cumulative IPC: 0.803077 (Simulation time: 0 hr 28 min 27 sec) 
Heartbeat CPU 0 instructions: 970000000 cycles: 1129687886 heartbeat IPC: 0.815579 cumulative IPC: 0.803219 (Simulation time: 0 hr 28 min 44 sec) 
Heartbeat CPU 0 instructions: 980000002 cycles: 1141915564 heartbeat IPC: 0.817817 cumulative IPC: 0.803382 (Simulation time: 0 hr 29 min 1 sec) 
Heartbeat CPU 0 instructions: 990000000 cycles: 1154158413 heartbeat IPC: 0.816803 cumulative IPC: 0.80353 (Simulation time: 0 hr 29 min 18 sec) 
Heartbeat CPU 0 instructions: 1000000000 cycles: 1166430612 heartbeat IPC: 0.81485 cumulative IPC: 0.803654 (Simulation time: 0 hr 29 min 35 sec) 
Heartbeat CPU 0 instructions: 1010000002 cycles: 1178658958 heartbeat IPC: 0.817772 cumulative IPC: 0.803807 (Simulation time: 0 hr 29 min 52 sec) 
Heartbeat CPU 0 instructions: 1020000001 cycles: 1190881867 heartbeat IPC: 0.818136 cumulative IPC: 0.80396 (Simulation time: 0 hr 30 min 9 sec) 
Heartbeat CPU 0 instructions: 1030000000 cycles: 1203116305 heartbeat IPC: 0.817365 cumulative IPC: 0.804102 (Simulation time: 0 hr 30 min 26 sec) 
Heartbeat CPU 0 instructions: 1040000003 cycles: 1215347328 heartbeat IPC: 0.817593 cumulative IPC: 0.804243 (Simulation time: 0 hr 30 min 43 sec) 
Heartbeat CPU 0 instructions: 1050000003 cycles: 1227650883 heartbeat IPC: 0.812773 cumulative IPC: 0.804332 (Simulation time: 0 hr 31 min 0 sec) 
Heartbeat CPU 0 instructions: 1060000001 cycles: 1239862784 heartbeat IPC: 0.818873 cumulative IPC: 0.80448 (Simulation time: 0 hr 31 min 17 sec) 
Heartbeat CPU 0 instructions: 1070000000 cycles: 1252092777 heartbeat IPC: 0.817662 cumulative IPC: 0.804614 (Simulation time: 0 hr 31 min 34 sec) 
Heartbeat CPU 0 instructions: 1080000001 cycles: 1264362031 heartbeat IPC: 0.815046 cumulative IPC: 0.804719 (Simulation time: 0 hr 31 min 51 sec) 
Heartbeat CPU 0 instructions: 1090000000 cycles: 1276646764 heartbeat IPC: 0.814018 cumulative IPC: 0.804812 (Simulation time: 0 hr 32 min 8 sec) 
Heartbeat CPU 0 instructions: 1100000000 cycles: 1288841185 heartbeat IPC: 0.820047 cumulative IPC: 0.804962 (Simulation time: 0 hr 32 min 25 sec) 
Finished CPU 0 instructions: 1000000000 cycles: 1242295131 cumulative IPC: 0.804962 (Simulation time: 0 hr 32 min 25 sec) 

ChampSim completed all CPUs

Region of Interest Statistics

CPU 0 cumulative IPC: 0.804962 instructions: 1000000000 cycles: 1242295131
L1D TOTAL     ACCESS:  316200885  HIT:  313244983  MISS:    2955902
L1D LOAD      ACCESS:  201703346  HIT:  199101073  MISS:    2602273
L1D RFO       ACCESS:  114497539  HIT:  114143910  MISS:     353629
L1D PREFETCH  ACCESS:          0  HIT:          0  MISS:          0
L1D WRITEBACK ACCESS:          0  HIT:          0  MISS:          0
L1D PREFETCH  REQUESTED:          0  ISSUED:          0  USEFUL:          0  USELESS:          0
L1D AVERAGE MISS LATENCY: 20.0246 cycles
L1I TOTAL     ACCESS:  183737973  HIT:  183681355  MISS:      56618
L1I LOAD      ACCESS:  183737973  HIT:  183681355  MISS:      56618
L1I RFO       ACCESS:          0  HIT:          0  MISS:          0
L1I PREFETCH  ACCESS:          0  HIT:          0  MISS:          0
L1I WRITEBACK ACCESS:          0  HIT:          0  MISS:          0
L1I PREFETCH  REQUESTED:          0  ISSUED:          0  USEFUL:          0  USELESS:          0
L1I AVERAGE MISS LATENCY: 18.3073 cycles
L2C TOTAL     ACCESS:    3594695  HIT:    3391201  MISS:     203494
L2C LOAD      ACCESS:    2658732  HIT:    2524784  MISS:     133948
L2C RFO       ACCESS:     353624  HIT:     284214  MISS:      69410
L2C PREFETCH  ACCESS:          0  HIT:          0  MISS:          0
L2C WRITEBACK ACCESS:     582339  HIT:     582203  MISS:        136
L2C PREFETCH  REQUESTED:          0  ISSUED:          0  USEFUL:          0  USELESS:          0
L2C AVERAGE MISS LATENCY: 117.922 cycles
LLC TOTAL     ACCESS:     280814  HIT:     162370  MISS:     118444
LLC LOAD      ACCESS:     133948  HIT:      83616  MISS:      50332
LLC RFO       ACCESS:      69410  HIT:      14756  MISS:      54654
LLC PREFETCH  ACCESS:          0  HIT:          0  MISS:          0
LLC WRITEBACK ACCESS:      77456  HIT:      63998  MISS:      13458
LLC PREFETCH  REQUESTED:          0  ISSUED:          0  USEFUL:          0  USELESS:          0
LLC AVERAGE MISS LATENCY: 133.641 cycles
Major fault: 0 Minor fault: 1740
==============================
Perceptron RRIP Stats:
   Num Updates:          258269
   Num Primary Trains:   9432
   Num Secondary Trains: 7841
==============================
primary_perceptron #0: -10 -4 -2 -2 8 0 10 6 0 2 6 8 0 4 2 0 
secondary_perceptron #0: -13 -5 1 -3 7 -3 13 13 -1 3 7 11 3 5 1 1 1 1 3 -1 -5 


DRAM Statistics
 CHANNEL 0
 RQ ROW_BUFFER_HIT:      39765  ROW_BUFFER_MISS:      65121
 DBUS_CONGESTED:      22813
 WQ ROW_BUFFER_HIT:      21257  ROW_BUFFER_MISS:      13034  FULL:        297

 AVG_CONGESTED_CYCLE: 6

CPU 0 Branch Prediction Accuracy: 87.4973% MPKI: 20.452 Average ROB Occupancy at Mispredict: 22.7019

Branch types
NOT_BRANCH: 836419616 83.642%
BRANCH_DIRECT_JUMP: 5445299 0.54453%
BRANCH_INDIRECT: 6861 0.0006861%
BRANCH_CONDITIONAL: 99292811 9.92928%
BRANCH_DIRECT_CALL: 29417492 2.94175%
BRANCH_INDIRECT_CALL: 78 7.8e-06%
BRANCH_RETURN: 29417568 2.94176%
BRANCH_OTHER: 0 0%

