
*** ChampSim Multicore Out-of-Order Simulator ***

Warmup Instructions: 100000000
Simulation Instructions: 1000000000
Number of CPUs: 1
LLC sets: 2048
LLC ways: 16
Off-chip DRAM Size: 4096 MB Channels: 1 Width: 64-bit Data Rate: 3200 MT/s

CPU 0 runs /scratch/user/kevin.weston/dpc3-traces/641.champsimtrace.xz
CPU 0 Bimodal branch predictor
Initialize SRRIP state
Heartbeat CPU 0 instructions: 10000003 cycles: 4649865 heartbeat IPC: 2.1506 cumulative IPC: 2.1506 (Simulation time: 0 hr 0 min 24 sec) 
Heartbeat CPU 0 instructions: 20000003 cycles: 9296101 heartbeat IPC: 2.15228 cumulative IPC: 2.15144 (Simulation time: 0 hr 0 min 48 sec) 
Heartbeat CPU 0 instructions: 30000001 cycles: 13960901 heartbeat IPC: 2.14371 cumulative IPC: 2.14886 (Simulation time: 0 hr 1 min 12 sec) 
Heartbeat CPU 0 instructions: 40000002 cycles: 18612339 heartbeat IPC: 2.14987 cumulative IPC: 2.14911 (Simulation time: 0 hr 1 min 36 sec) 
Heartbeat CPU 0 instructions: 50000001 cycles: 23258685 heartbeat IPC: 2.15223 cumulative IPC: 2.14973 (Simulation time: 0 hr 2 min 0 sec) 
Heartbeat CPU 0 instructions: 60000000 cycles: 27917034 heartbeat IPC: 2.14668 cumulative IPC: 2.14923 (Simulation time: 0 hr 2 min 24 sec) 
Heartbeat CPU 0 instructions: 70000001 cycles: 32574836 heartbeat IPC: 2.14694 cumulative IPC: 2.1489 (Simulation time: 0 hr 2 min 48 sec) 
Heartbeat CPU 0 instructions: 80000001 cycles: 37238949 heartbeat IPC: 2.14403 cumulative IPC: 2.14829 (Simulation time: 0 hr 3 min 12 sec) 
Heartbeat CPU 0 instructions: 90000003 cycles: 41905392 heartbeat IPC: 2.14296 cumulative IPC: 2.1477 (Simulation time: 0 hr 3 min 36 sec) 
Heartbeat CPU 0 instructions: 100000000 cycles: 46546062 heartbeat IPC: 2.15486 cumulative IPC: 2.14841 (Simulation time: 0 hr 4 min 0 sec) 

Warmup complete CPU 0 instructions: 100000004 cycles: 46546063 (Simulation time: 0 hr 4 min 0 sec) 

Heartbeat CPU 0 instructions: 110000000 cycles: 58832944 heartbeat IPC: 0.813876 cumulative IPC: 0.813876 (Simulation time: 0 hr 4 min 16 sec) 
Heartbeat CPU 0 instructions: 120000001 cycles: 75567273 heartbeat IPC: 0.597574 cumulative IPC: 0.689151 (Simulation time: 0 hr 4 min 36 sec) 
Heartbeat CPU 0 instructions: 130000000 cycles: 88068746 heartbeat IPC: 0.799906 cumulative IPC: 0.722497 (Simulation time: 0 hr 4 min 53 sec) 
Heartbeat CPU 0 instructions: 140000000 cycles: 100448633 heartbeat IPC: 0.807762 cumulative IPC: 0.74208 (Simulation time: 0 hr 5 min 9 sec) 
Heartbeat CPU 0 instructions: 150000001 cycles: 112772792 heartbeat IPC: 0.811414 cumulative IPC: 0.754982 (Simulation time: 0 hr 5 min 26 sec) 
Heartbeat CPU 0 instructions: 160000002 cycles: 125153192 heartbeat IPC: 0.807728 cumulative IPC: 0.76329 (Simulation time: 0 hr 5 min 43 sec) 
Heartbeat CPU 0 instructions: 170000001 cycles: 137620948 heartbeat IPC: 0.802069 cumulative IPC: 0.768598 (Simulation time: 0 hr 5 min 59 sec) 
Heartbeat CPU 0 instructions: 180000000 cycles: 150011643 heartbeat IPC: 0.807057 cumulative IPC: 0.773204 (Simulation time: 0 hr 6 min 16 sec) 
Heartbeat CPU 0 instructions: 190000002 cycles: 162398625 heartbeat IPC: 0.807299 cumulative IPC: 0.776849 (Simulation time: 0 hr 6 min 33 sec) 
Heartbeat CPU 0 instructions: 200000000 cycles: 174763474 heartbeat IPC: 0.808744 cumulative IPC: 0.779925 (Simulation time: 0 hr 6 min 49 sec) 
Heartbeat CPU 0 instructions: 210000001 cycles: 187045215 heartbeat IPC: 0.814217 cumulative IPC: 0.782923 (Simulation time: 0 hr 7 min 6 sec) 
Heartbeat CPU 0 instructions: 220000000 cycles: 199405245 heartbeat IPC: 0.809059 cumulative IPC: 0.785036 (Simulation time: 0 hr 7 min 23 sec) 
Heartbeat CPU 0 instructions: 230000000 cycles: 211813197 heartbeat IPC: 0.805935 cumulative IPC: 0.786605 (Simulation time: 0 hr 7 min 39 sec) 
Heartbeat CPU 0 instructions: 240000001 cycles: 224194949 heartbeat IPC: 0.80764 cumulative IPC: 0.788071 (Simulation time: 0 hr 7 min 56 sec) 
Heartbeat CPU 0 instructions: 250000002 cycles: 236537372 heartbeat IPC: 0.810214 cumulative IPC: 0.78951 (Simulation time: 0 hr 8 min 13 sec) 
Heartbeat CPU 0 instructions: 260000000 cycles: 248850039 heartbeat IPC: 0.812172 cumulative IPC: 0.790889 (Simulation time: 0 hr 8 min 29 sec) 
Heartbeat CPU 0 instructions: 270000000 cycles: 261192062 heartbeat IPC: 0.81024 cumulative IPC: 0.792002 (Simulation time: 0 hr 8 min 46 sec) 
Heartbeat CPU 0 instructions: 280000000 cycles: 273535012 heartbeat IPC: 0.810179 cumulative IPC: 0.79299 (Simulation time: 0 hr 9 min 3 sec) 
Heartbeat CPU 0 instructions: 290000000 cycles: 285780702 heartbeat IPC: 0.816614 cumulative IPC: 0.794199 (Simulation time: 0 hr 9 min 19 sec) 
Heartbeat CPU 0 instructions: 300000001 cycles: 298090164 heartbeat IPC: 0.812383 cumulative IPC: 0.795089 (Simulation time: 0 hr 9 min 36 sec) 
Heartbeat CPU 0 instructions: 310000000 cycles: 310352911 heartbeat IPC: 0.815478 cumulative IPC: 0.796037 (Simulation time: 0 hr 9 min 53 sec) 
Heartbeat CPU 0 instructions: 320000002 cycles: 322659830 heartbeat IPC: 0.812551 cumulative IPC: 0.796773 (Simulation time: 0 hr 10 min 9 sec) 
Heartbeat CPU 0 instructions: 330000000 cycles: 334905934 heartbeat IPC: 0.816586 cumulative IPC: 0.797614 (Simulation time: 0 hr 10 min 26 sec) 
Heartbeat CPU 0 instructions: 340000001 cycles: 347199329 heartbeat IPC: 0.813445 cumulative IPC: 0.798262 (Simulation time: 0 hr 10 min 43 sec) 
Heartbeat CPU 0 instructions: 350000001 cycles: 359542905 heartbeat IPC: 0.810138 cumulative IPC: 0.79873 (Simulation time: 0 hr 10 min 59 sec) 
Heartbeat CPU 0 instructions: 360000003 cycles: 371849607 heartbeat IPC: 0.812566 cumulative IPC: 0.799254 (Simulation time: 0 hr 11 min 16 sec) 
Heartbeat CPU 0 instructions: 370000002 cycles: 384116091 heartbeat IPC: 0.815229 cumulative IPC: 0.799834 (Simulation time: 0 hr 11 min 33 sec) 
Heartbeat CPU 0 instructions: 380000001 cycles: 396480718 heartbeat IPC: 0.808759 cumulative IPC: 0.800149 (Simulation time: 0 hr 11 min 49 sec) 
Heartbeat CPU 0 instructions: 390000001 cycles: 408852726 heartbeat IPC: 0.808276 cumulative IPC: 0.800427 (Simulation time: 0 hr 12 min 6 sec) 
Heartbeat CPU 0 instructions: 400000000 cycles: 421172374 heartbeat IPC: 0.811711 cumulative IPC: 0.800798 (Simulation time: 0 hr 12 min 23 sec) 
Heartbeat CPU 0 instructions: 410000001 cycles: 433441134 heartbeat IPC: 0.815078 cumulative IPC: 0.801251 (Simulation time: 0 hr 12 min 39 sec) 
Heartbeat CPU 0 instructions: 420000000 cycles: 445801175 heartbeat IPC: 0.809059 cumulative IPC: 0.801493 (Simulation time: 0 hr 12 min 56 sec) 
Heartbeat CPU 0 instructions: 430000001 cycles: 458213966 heartbeat IPC: 0.805621 cumulative IPC: 0.801617 (Simulation time: 0 hr 13 min 13 sec) 
Heartbeat CPU 0 instructions: 440000000 cycles: 470559594 heartbeat IPC: 0.810003 cumulative IPC: 0.801861 (Simulation time: 0 hr 13 min 29 sec) 
Heartbeat CPU 0 instructions: 450000002 cycles: 482926018 heartbeat IPC: 0.808641 cumulative IPC: 0.802053 (Simulation time: 0 hr 13 min 46 sec) 
Heartbeat CPU 0 instructions: 460000000 cycles: 495258470 heartbeat IPC: 0.810869 cumulative IPC: 0.802296 (Simulation time: 0 hr 14 min 3 sec) 
Heartbeat CPU 0 instructions: 470000000 cycles: 507637808 heartbeat IPC: 0.807798 cumulative IPC: 0.802443 (Simulation time: 0 hr 14 min 19 sec) 
Heartbeat CPU 0 instructions: 480000001 cycles: 520017684 heartbeat IPC: 0.807763 cumulative IPC: 0.802582 (Simulation time: 0 hr 14 min 36 sec) 
Heartbeat CPU 0 instructions: 490000000 cycles: 532191987 heartbeat IPC: 0.821402 cumulative IPC: 0.803054 (Simulation time: 0 hr 14 min 52 sec) 
Heartbeat CPU 0 instructions: 500000002 cycles: 544449503 heartbeat IPC: 0.815826 cumulative IPC: 0.803369 (Simulation time: 0 hr 15 min 9 sec) 
Heartbeat CPU 0 instructions: 510000003 cycles: 556779176 heartbeat IPC: 0.811052 cumulative IPC: 0.803554 (Simulation time: 0 hr 15 min 26 sec) 
Heartbeat CPU 0 instructions: 520000001 cycles: 569200038 heartbeat IPC: 0.805097 cumulative IPC: 0.803591 (Simulation time: 0 hr 15 min 43 sec) 
Heartbeat CPU 0 instructions: 530000002 cycles: 581567392 heartbeat IPC: 0.80858 cumulative IPC: 0.803706 (Simulation time: 0 hr 15 min 59 sec) 
Heartbeat CPU 0 instructions: 540000001 cycles: 593896800 heartbeat IPC: 0.811069 cumulative IPC: 0.803872 (Simulation time: 0 hr 16 min 16 sec) 
Heartbeat CPU 0 instructions: 550000000 cycles: 606220727 heartbeat IPC: 0.81143 cumulative IPC: 0.804039 (Simulation time: 0 hr 16 min 32 sec) 
Heartbeat CPU 0 instructions: 560000001 cycles: 618573533 heartbeat IPC: 0.809533 cumulative IPC: 0.804157 (Simulation time: 0 hr 16 min 49 sec) 
Heartbeat CPU 0 instructions: 570000001 cycles: 630918999 heartbeat IPC: 0.810014 cumulative IPC: 0.804281 (Simulation time: 0 hr 17 min 6 sec) 
Heartbeat CPU 0 instructions: 580000000 cycles: 643195475 heartbeat IPC: 0.814566 cumulative IPC: 0.804493 (Simulation time: 0 hr 17 min 22 sec) 
Heartbeat CPU 0 instructions: 590000000 cycles: 655520600 heartbeat IPC: 0.811351 cumulative IPC: 0.804631 (Simulation time: 0 hr 17 min 39 sec) 
Heartbeat CPU 0 instructions: 600000001 cycles: 667824184 heartbeat IPC: 0.812771 cumulative IPC: 0.804793 (Simulation time: 0 hr 17 min 56 sec) 
Heartbeat CPU 0 instructions: 610000002 cycles: 680162828 heartbeat IPC: 0.810462 cumulative IPC: 0.804903 (Simulation time: 0 hr 18 min 12 sec) 
Heartbeat CPU 0 instructions: 620000002 cycles: 692521809 heartbeat IPC: 0.809128 cumulative IPC: 0.804984 (Simulation time: 0 hr 18 min 29 sec) 
Heartbeat CPU 0 instructions: 630000001 cycles: 704879335 heartbeat IPC: 0.809223 cumulative IPC: 0.805063 (Simulation time: 0 hr 18 min 46 sec) 
Heartbeat CPU 0 instructions: 640000002 cycles: 717271978 heartbeat IPC: 0.80693 cumulative IPC: 0.805098 (Simulation time: 0 hr 19 min 2 sec) 
Heartbeat CPU 0 instructions: 650000001 cycles: 729622445 heartbeat IPC: 0.809686 cumulative IPC: 0.805181 (Simulation time: 0 hr 19 min 19 sec) 
Heartbeat CPU 0 instructions: 660000000 cycles: 741935036 heartbeat IPC: 0.812177 cumulative IPC: 0.805305 (Simulation time: 0 hr 19 min 35 sec) 
Heartbeat CPU 0 instructions: 670000000 cycles: 754279229 heartbeat IPC: 0.810098 cumulative IPC: 0.805388 (Simulation time: 0 hr 19 min 52 sec) 
Heartbeat CPU 0 instructions: 680000003 cycles: 766646236 heartbeat IPC: 0.808603 cumulative IPC: 0.805443 (Simulation time: 0 hr 20 min 9 sec) 
Heartbeat CPU 0 instructions: 690000000 cycles: 778982137 heartbeat IPC: 0.810642 cumulative IPC: 0.805531 (Simulation time: 0 hr 20 min 25 sec) 
Heartbeat CPU 0 instructions: 700000002 cycles: 791333390 heartbeat IPC: 0.809635 cumulative IPC: 0.805599 (Simulation time: 0 hr 20 min 42 sec) 
Heartbeat CPU 0 instructions: 710000002 cycles: 803615510 heartbeat IPC: 0.814192 cumulative IPC: 0.805739 (Simulation time: 0 hr 20 min 59 sec) 
Heartbeat CPU 0 instructions: 720000001 cycles: 816000417 heartbeat IPC: 0.807434 cumulative IPC: 0.805766 (Simulation time: 0 hr 21 min 15 sec) 
Heartbeat CPU 0 instructions: 730000000 cycles: 828367150 heartbeat IPC: 0.808621 cumulative IPC: 0.805811 (Simulation time: 0 hr 21 min 32 sec) 
Heartbeat CPU 0 instructions: 740000002 cycles: 840713978 heartbeat IPC: 0.809925 cumulative IPC: 0.805875 (Simulation time: 0 hr 21 min 48 sec) 
Heartbeat CPU 0 instructions: 750000001 cycles: 853087887 heartbeat IPC: 0.808152 cumulative IPC: 0.80591 (Simulation time: 0 hr 22 min 5 sec) 
Heartbeat CPU 0 instructions: 760000002 cycles: 865435731 heartbeat IPC: 0.809858 cumulative IPC: 0.805969 (Simulation time: 0 hr 22 min 22 sec) 
Heartbeat CPU 0 instructions: 770000000 cycles: 877746254 heartbeat IPC: 0.812313 cumulative IPC: 0.806063 (Simulation time: 0 hr 22 min 38 sec) 
Heartbeat CPU 0 instructions: 780000000 cycles: 890112997 heartbeat IPC: 0.80862 cumulative IPC: 0.806101 (Simulation time: 0 hr 22 min 55 sec) 
Heartbeat CPU 0 instructions: 790000000 cycles: 902412045 heartbeat IPC: 0.813071 cumulative IPC: 0.806201 (Simulation time: 0 hr 23 min 12 sec) 
Heartbeat CPU 0 instructions: 800000001 cycles: 914737760 heartbeat IPC: 0.811312 cumulative IPC: 0.806274 (Simulation time: 0 hr 23 min 28 sec) 
Heartbeat CPU 0 instructions: 810000001 cycles: 927048186 heartbeat IPC: 0.81232 cumulative IPC: 0.806358 (Simulation time: 0 hr 23 min 45 sec) 
Heartbeat CPU 0 instructions: 820000000 cycles: 939393069 heartbeat IPC: 0.810052 cumulative IPC: 0.806409 (Simulation time: 0 hr 24 min 2 sec) 
Heartbeat CPU 0 instructions: 830000000 cycles: 951689357 heartbeat IPC: 0.813254 cumulative IPC: 0.806502 (Simulation time: 0 hr 24 min 18 sec) 
Heartbeat CPU 0 instructions: 840000001 cycles: 963950647 heartbeat IPC: 0.815575 cumulative IPC: 0.806623 (Simulation time: 0 hr 24 min 35 sec) 
Heartbeat CPU 0 instructions: 850000000 cycles: 976267696 heartbeat IPC: 0.811883 cumulative IPC: 0.806693 (Simulation time: 0 hr 24 min 51 sec) 
Heartbeat CPU 0 instructions: 860000000 cycles: 988567797 heartbeat IPC: 0.813001 cumulative IPC: 0.806775 (Simulation time: 0 hr 25 min 8 sec) 
Heartbeat CPU 0 instructions: 870000002 cycles: 1000900308 heartbeat IPC: 0.810865 cumulative IPC: 0.806828 (Simulation time: 0 hr 25 min 25 sec) 
Heartbeat CPU 0 instructions: 880000000 cycles: 1013241301 heartbeat IPC: 0.810307 cumulative IPC: 0.806873 (Simulation time: 0 hr 25 min 41 sec) 
Heartbeat CPU 0 instructions: 890000002 cycles: 1025475770 heartbeat IPC: 0.817363 cumulative IPC: 0.807004 (Simulation time: 0 hr 25 min 58 sec) 
Heartbeat CPU 0 instructions: 900000002 cycles: 1037679631 heartbeat IPC: 0.819413 cumulative IPC: 0.807157 (Simulation time: 0 hr 26 min 15 sec) 
Heartbeat CPU 0 instructions: 910000001 cycles: 1049916682 heartbeat IPC: 0.81719 cumulative IPC: 0.807279 (Simulation time: 0 hr 26 min 31 sec) 
Heartbeat CPU 0 instructions: 920000001 cycles: 1062231924 heartbeat IPC: 0.812002 cumulative IPC: 0.807336 (Simulation time: 0 hr 26 min 48 sec) 
Heartbeat CPU 0 instructions: 930000002 cycles: 1074555862 heartbeat IPC: 0.811429 cumulative IPC: 0.807385 (Simulation time: 0 hr 27 min 5 sec) 
Heartbeat CPU 0 instructions: 940000000 cycles: 1086785395 heartbeat IPC: 0.817693 cumulative IPC: 0.807507 (Simulation time: 0 hr 27 min 21 sec) 
Heartbeat CPU 0 instructions: 950000000 cycles: 1099025967 heartbeat IPC: 0.816955 cumulative IPC: 0.807616 (Simulation time: 0 hr 27 min 38 sec) 
Heartbeat CPU 0 instructions: 960000001 cycles: 1116618025 heartbeat IPC: 0.568438 cumulative IPC: 0.803684 (Simulation time: 0 hr 27 min 58 sec) 
Heartbeat CPU 0 instructions: 970000000 cycles: 1128881368 heartbeat IPC: 0.815438 cumulative IPC: 0.803817 (Simulation time: 0 hr 28 min 15 sec) 
Heartbeat CPU 0 instructions: 980000002 cycles: 1141110424 heartbeat IPC: 0.817725 cumulative IPC: 0.803973 (Simulation time: 0 hr 28 min 31 sec) 
Heartbeat CPU 0 instructions: 990000000 cycles: 1153351804 heartbeat IPC: 0.816901 cumulative IPC: 0.804116 (Simulation time: 0 hr 28 min 48 sec) 
Heartbeat CPU 0 instructions: 1000000000 cycles: 1165622593 heartbeat IPC: 0.814943 cumulative IPC: 0.804235 (Simulation time: 0 hr 29 min 5 sec) 
Heartbeat CPU 0 instructions: 1010000002 cycles: 1177852174 heartbeat IPC: 0.81769 cumulative IPC: 0.80438 (Simulation time: 0 hr 29 min 21 sec) 
Heartbeat CPU 0 instructions: 1020000001 cycles: 1190075258 heartbeat IPC: 0.818124 cumulative IPC: 0.804527 (Simulation time: 0 hr 29 min 38 sec) 
Heartbeat CPU 0 instructions: 1030000000 cycles: 1202325265 heartbeat IPC: 0.816326 cumulative IPC: 0.804652 (Simulation time: 0 hr 29 min 54 sec) 
Heartbeat CPU 0 instructions: 1040000003 cycles: 1214553117 heartbeat IPC: 0.817805 cumulative IPC: 0.80479 (Simulation time: 0 hr 30 min 11 sec) 
Heartbeat CPU 0 instructions: 1050000003 cycles: 1226857739 heartbeat IPC: 0.812703 cumulative IPC: 0.804872 (Simulation time: 0 hr 30 min 28 sec) 
Heartbeat CPU 0 instructions: 1060000001 cycles: 1239068082 heartbeat IPC: 0.818978 cumulative IPC: 0.805017 (Simulation time: 0 hr 30 min 44 sec) 
Heartbeat CPU 0 instructions: 1070000000 cycles: 1251295649 heartbeat IPC: 0.817824 cumulative IPC: 0.805147 (Simulation time: 0 hr 31 min 1 sec) 
Heartbeat CPU 0 instructions: 1080000001 cycles: 1263563184 heartbeat IPC: 0.81516 cumulative IPC: 0.805247 (Simulation time: 0 hr 31 min 18 sec) 
Heartbeat CPU 0 instructions: 1090000000 cycles: 1275848476 heartbeat IPC: 0.813981 cumulative IPC: 0.805335 (Simulation time: 0 hr 31 min 34 sec) 
Heartbeat CPU 0 instructions: 1100000000 cycles: 1288041799 heartbeat IPC: 0.820121 cumulative IPC: 0.80548 (Simulation time: 0 hr 31 min 51 sec) 
Finished CPU 0 instructions: 1000000000 cycles: 1241495745 cumulative IPC: 0.80548 (Simulation time: 0 hr 31 min 51 sec) 

ChampSim completed all CPUs

Region of Interest Statistics

CPU 0 cumulative IPC: 0.80548 instructions: 1000000000 cycles: 1241495745
L1D TOTAL     ACCESS:  316199257  HIT:  313243356  MISS:    2955901
L1D LOAD      ACCESS:  201703527  HIT:  199101255  MISS:    2602272
L1D RFO       ACCESS:  114495730  HIT:  114142101  MISS:     353629
L1D PREFETCH  ACCESS:          0  HIT:          0  MISS:          0
L1D WRITEBACK ACCESS:          0  HIT:          0  MISS:          0
L1D PREFETCH  REQUESTED:          0  ISSUED:          0  USEFUL:          0  USELESS:          0
L1D AVERAGE MISS LATENCY: 19.8644 cycles
L1I TOTAL     ACCESS:  183737261  HIT:  183680643  MISS:      56618
L1I LOAD      ACCESS:  183737261  HIT:  183680643  MISS:      56618
L1I RFO       ACCESS:          0  HIT:          0  MISS:          0
L1I PREFETCH  ACCESS:          0  HIT:          0  MISS:          0
L1I WRITEBACK ACCESS:          0  HIT:          0  MISS:          0
L1I PREFETCH  REQUESTED:          0  ISSUED:          0  USEFUL:          0  USELESS:          0
L1I AVERAGE MISS LATENCY: 18.6016 cycles
L2C TOTAL     ACCESS:    3594695  HIT:    3391201  MISS:     203494
L2C LOAD      ACCESS:    2658731  HIT:    2524783  MISS:     133948
L2C RFO       ACCESS:     353624  HIT:     284214  MISS:      69410
L2C PREFETCH  ACCESS:          0  HIT:          0  MISS:          0
L2C WRITEBACK ACCESS:     582340  HIT:     582204  MISS:        136
L2C PREFETCH  REQUESTED:          0  ISSUED:          0  USEFUL:          0  USELESS:          0
L2C AVERAGE MISS LATENCY: 115.677 cycles
LLC TOTAL     ACCESS:     280814  HIT:     174777  MISS:     106037
LLC LOAD      ACCESS:     133948  HIT:      89801  MISS:      44147
LLC RFO       ACCESS:      69410  HIT:       9325  MISS:      60085
LLC PREFETCH  ACCESS:          0  HIT:          0  MISS:          0
LLC WRITEBACK ACCESS:      77456  HIT:      75651  MISS:       1805
LLC PREFETCH  REQUESTED:          0  ISSUED:          0  USEFUL:          0  USELESS:          0
LLC AVERAGE MISS LATENCY: 144.955 cycles
Major fault: 0 Minor fault: 1740

DRAM Statistics
 CHANNEL 0
 RQ ROW_BUFFER_HIT:      42911  ROW_BUFFER_MISS:      61267
 DBUS_CONGESTED:      23156
 WQ ROW_BUFFER_HIT:      22255  ROW_BUFFER_MISS:      13695  FULL:          0

 AVG_CONGESTED_CYCLE: 6

CPU 0 Branch Prediction Accuracy: 87.4973% MPKI: 20.452 Average ROB Occupancy at Mispredict: 22.7013

Branch types
NOT_BRANCH: 836419616 83.642%
BRANCH_DIRECT_JUMP: 5445299 0.54453%
BRANCH_INDIRECT: 6861 0.0006861%
BRANCH_CONDITIONAL: 99292811 9.92928%
BRANCH_DIRECT_CALL: 29417492 2.94175%
BRANCH_INDIRECT_CALL: 78 7.8e-06%
BRANCH_RETURN: 29417568 2.94176%
BRANCH_OTHER: 0 0%

