
*** ChampSim Multicore Out-of-Order Simulator ***

Warmup Instructions: 100000000
Simulation Instructions: 1000000000
Number of CPUs: 1
LLC sets: 2048
LLC ways: 16
Off-chip DRAM Size: 4096 MB Channels: 1 Width: 64-bit Data Rate: 3200 MT/s

CPU 0 runs /scratch/user/kevin.weston/dpc3-traces/644.champsimtrace.xz
CPU 0 Bimodal branch predictor
Per-line RRPV Initialized
PRRIP State Initialized
Assign SAMPLER_SET[0]: 454  LLC: 2048
SAMPLER_SET[0]: 454
Assign SAMPLER_SET[1]: 1662  LLC: 2048
SAMPLER_SET[1]: 1662
Assign SAMPLER_SET[2]: 1921  LLC: 2048
SAMPLER_SET[2]: 1921
Assign SAMPLER_SET[3]: 1131  LLC: 2048
SAMPLER_SET[3]: 1131
Assign SAMPLER_SET[4]: 331  LLC: 2048
SAMPLER_SET[4]: 331
Assign SAMPLER_SET[5]: 1531  LLC: 2048
SAMPLER_SET[5]: 1531
Assign SAMPLER_SET[6]: 482  LLC: 2048
SAMPLER_SET[6]: 482
Assign SAMPLER_SET[7]: 1275  LLC: 2048
SAMPLER_SET[7]: 1275
Assign SAMPLER_SET[8]: 1876  LLC: 2048
SAMPLER_SET[8]: 1876
Assign SAMPLER_SET[9]: 2038  LLC: 2048
SAMPLER_SET[9]: 2038
Assign SAMPLER_SET[10]: 701  LLC: 2048
SAMPLER_SET[10]: 701
Assign SAMPLER_SET[11]: 479  LLC: 2048
SAMPLER_SET[11]: 479
Assign SAMPLER_SET[12]: 892  LLC: 2048
SAMPLER_SET[12]: 892
Assign SAMPLER_SET[13]: 1820  LLC: 2048
SAMPLER_SET[13]: 1820
Assign SAMPLER_SET[14]: 1505  LLC: 2048
SAMPLER_SET[14]: 1505
Assign SAMPLER_SET[15]: 1159  LLC: 2048
SAMPLER_SET[15]: 1159
Assign SAMPLER_SET[16]: 513  LLC: 2048
SAMPLER_SET[16]: 513
Assign SAMPLER_SET[17]: 703  LLC: 2048
SAMPLER_SET[17]: 703
Assign SAMPLER_SET[18]: 561  LLC: 2048
SAMPLER_SET[18]: 561
Assign SAMPLER_SET[19]: 990  LLC: 2048
SAMPLER_SET[19]: 990
Assign SAMPLER_SET[20]: 342  LLC: 2048
SAMPLER_SET[20]: 342
Assign SAMPLER_SET[21]: 882  LLC: 2048
SAMPLER_SET[21]: 882
Assign SAMPLER_SET[22]: 15  LLC: 2048
SAMPLER_SET[22]: 15
Assign SAMPLER_SET[23]: 71  LLC: 2048
SAMPLER_SET[23]: 71
Assign SAMPLER_SET[24]: 1127  LLC: 2048
SAMPLER_SET[24]: 1127
Assign SAMPLER_SET[25]: 1382  LLC: 2048
SAMPLER_SET[25]: 1382
Assign SAMPLER_SET[26]: 647  LLC: 2048
SAMPLER_SET[26]: 647
Assign SAMPLER_SET[27]: 857  LLC: 2048
SAMPLER_SET[27]: 857
Assign SAMPLER_SET[28]: 1450  LLC: 2048
SAMPLER_SET[28]: 1450
Assign SAMPLER_SET[29]: 1160  LLC: 2048
SAMPLER_SET[29]: 1160
Assign SAMPLER_SET[30]: 1852  LLC: 2048
SAMPLER_SET[30]: 1852
Assign SAMPLER_SET[31]: 1881  LLC: 2048
SAMPLER_SET[31]: 1881
Assign SAMPLER_SET[32]: 1770  LLC: 2048
SAMPLER_SET[32]: 1770
Assign SAMPLER_SET[33]: 1622  LLC: 2048
SAMPLER_SET[33]: 1622
Assign SAMPLER_SET[34]: 275  LLC: 2048
SAMPLER_SET[34]: 275
Assign SAMPLER_SET[35]: 635  LLC: 2048
SAMPLER_SET[35]: 635
Assign SAMPLER_SET[36]: 466  LLC: 2048
SAMPLER_SET[36]: 466
Assign SAMPLER_SET[37]: 1413  LLC: 2048
SAMPLER_SET[37]: 1413
Assign SAMPLER_SET[38]: 417  LLC: 2048
SAMPLER_SET[38]: 417
Assign SAMPLER_SET[39]: 472  LLC: 2048
SAMPLER_SET[39]: 472
Assign SAMPLER_SET[40]: 1340  LLC: 2048
SAMPLER_SET[40]: 1340
Assign SAMPLER_SET[41]: 852  LLC: 2048
SAMPLER_SET[41]: 852
Assign SAMPLER_SET[42]: 1365  LLC: 2048
SAMPLER_SET[42]: 1365
Assign SAMPLER_SET[43]: 47  LLC: 2048
SAMPLER_SET[43]: 47
Assign SAMPLER_SET[44]: 823  LLC: 2048
SAMPLER_SET[44]: 823
Assign SAMPLER_SET[45]: 686  LLC: 2048
SAMPLER_SET[45]: 686
Assign SAMPLER_SET[46]: 1637  LLC: 2048
SAMPLER_SET[46]: 1637
Assign SAMPLER_SET[47]: 1115  LLC: 2048
SAMPLER_SET[47]: 1115
Assign SAMPLER_SET[48]: 986  LLC: 2048
SAMPLER_SET[48]: 986
Assign SAMPLER_SET[49]: 258  LLC: 2048
SAMPLER_SET[49]: 258
Assign SAMPLER_SET[50]: 633  LLC: 2048
SAMPLER_SET[50]: 633
Assign SAMPLER_SET[51]: 920  LLC: 2048
SAMPLER_SET[51]: 920
Assign SAMPLER_SET[52]: 204  LLC: 2048
SAMPLER_SET[52]: 204
Assign SAMPLER_SET[53]: 227  LLC: 2048
SAMPLER_SET[53]: 227
Assign SAMPLER_SET[54]: 1818  LLC: 2048
SAMPLER_SET[54]: 1818
Assign SAMPLER_SET[55]: 886  LLC: 2048
SAMPLER_SET[55]: 886
Assign SAMPLER_SET[56]: 1422  LLC: 2048
SAMPLER_SET[56]: 1422
Assign SAMPLER_SET[57]: 607  LLC: 2048
SAMPLER_SET[57]: 607
Assign SAMPLER_SET[58]: 217  LLC: 2048
SAMPLER_SET[58]: 217
Assign SAMPLER_SET[59]: 1945  LLC: 2048
SAMPLER_SET[59]: 1945
Assign SAMPLER_SET[60]: 143  LLC: 2048
SAMPLER_SET[60]: 143
Assign SAMPLER_SET[61]: 1311  LLC: 2048
SAMPLER_SET[61]: 1311
Assign SAMPLER_SET[62]: 319  LLC: 2048
SAMPLER_SET[62]: 319
Assign SAMPLER_SET[63]: 1846  LLC: 2048
SAMPLER_SET[63]: 1846
Heartbeat CPU 0 instructions: 10000000 cycles: 4240551 heartbeat IPC: 2.35818 cumulative IPC: 2.35818 (Simulation time: 0 hr 0 min 25 sec) 
Heartbeat CPU 0 instructions: 20000001 cycles: 8479037 heartbeat IPC: 2.35933 cumulative IPC: 2.35876 (Simulation time: 0 hr 0 min 50 sec) 
Heartbeat CPU 0 instructions: 30000000 cycles: 12720047 heartbeat IPC: 2.35793 cumulative IPC: 2.35848 (Simulation time: 0 hr 1 min 15 sec) 
Heartbeat CPU 0 instructions: 40000002 cycles: 16961029 heartbeat IPC: 2.35794 cumulative IPC: 2.35835 (Simulation time: 0 hr 1 min 40 sec) 
Heartbeat CPU 0 instructions: 50000001 cycles: 21200067 heartbeat IPC: 2.35903 cumulative IPC: 2.35848 (Simulation time: 0 hr 2 min 4 sec) 
Heartbeat CPU 0 instructions: 60000000 cycles: 25441594 heartbeat IPC: 2.35764 cumulative IPC: 2.35834 (Simulation time: 0 hr 2 min 29 sec) 
Heartbeat CPU 0 instructions: 70000000 cycles: 29680426 heartbeat IPC: 2.35914 cumulative IPC: 2.35846 (Simulation time: 0 hr 2 min 54 sec) 
Heartbeat CPU 0 instructions: 80000002 cycles: 33919828 heartbeat IPC: 2.35882 cumulative IPC: 2.3585 (Simulation time: 0 hr 3 min 19 sec) 
Heartbeat CPU 0 instructions: 90000000 cycles: 38157206 heartbeat IPC: 2.35995 cumulative IPC: 2.35866 (Simulation time: 0 hr 3 min 44 sec) 
Heartbeat CPU 0 instructions: 100000001 cycles: 42398344 heartbeat IPC: 2.35786 cumulative IPC: 2.35858 (Simulation time: 0 hr 4 min 9 sec) 

Warmup complete CPU 0 instructions: 100000001 cycles: 42398344 (Simulation time: 0 hr 4 min 9 sec) 

Heartbeat CPU 0 instructions: 110000000 cycles: 50231738 heartbeat IPC: 1.27659 cumulative IPC: 1.27659 (Simulation time: 0 hr 4 min 29 sec) 
Heartbeat CPU 0 instructions: 120000002 cycles: 58051186 heartbeat IPC: 1.27886 cumulative IPC: 1.27772 (Simulation time: 0 hr 4 min 49 sec) 
Heartbeat CPU 0 instructions: 130000003 cycles: 65871552 heartbeat IPC: 1.27871 cumulative IPC: 1.27805 (Simulation time: 0 hr 5 min 8 sec) 
Heartbeat CPU 0 instructions: 140000001 cycles: 73681366 heartbeat IPC: 1.28044 cumulative IPC: 1.27865 (Simulation time: 0 hr 5 min 28 sec) 
Heartbeat CPU 0 instructions: 150000002 cycles: 81494798 heartbeat IPC: 1.27985 cumulative IPC: 1.27889 (Simulation time: 0 hr 5 min 48 sec) 
Heartbeat CPU 0 instructions: 160000000 cycles: 89337709 heartbeat IPC: 1.27504 cumulative IPC: 1.27824 (Simulation time: 0 hr 6 min 8 sec) 
Heartbeat CPU 0 instructions: 170000003 cycles: 97198258 heartbeat IPC: 1.27218 cumulative IPC: 1.27737 (Simulation time: 0 hr 6 min 28 sec) 
Heartbeat CPU 0 instructions: 180000002 cycles: 105046317 heartbeat IPC: 1.2742 cumulative IPC: 1.27698 (Simulation time: 0 hr 6 min 48 sec) 
Heartbeat CPU 0 instructions: 190000000 cycles: 112910255 heartbeat IPC: 1.27163 cumulative IPC: 1.27638 (Simulation time: 0 hr 7 min 8 sec) 
Heartbeat CPU 0 instructions: 200000003 cycles: 120739050 heartbeat IPC: 1.27734 cumulative IPC: 1.27648 (Simulation time: 0 hr 7 min 28 sec) 
Heartbeat CPU 0 instructions: 210000003 cycles: 128577563 heartbeat IPC: 1.27575 cumulative IPC: 1.27641 (Simulation time: 0 hr 7 min 47 sec) 
Heartbeat CPU 0 instructions: 220000000 cycles: 136457319 heartbeat IPC: 1.26907 cumulative IPC: 1.2758 (Simulation time: 0 hr 8 min 7 sec) 
Heartbeat CPU 0 instructions: 230000002 cycles: 144282305 heartbeat IPC: 1.27796 cumulative IPC: 1.27596 (Simulation time: 0 hr 8 min 27 sec) 
Heartbeat CPU 0 instructions: 240000002 cycles: 152138535 heartbeat IPC: 1.27288 cumulative IPC: 1.27574 (Simulation time: 0 hr 8 min 47 sec) 
Heartbeat CPU 0 instructions: 250000003 cycles: 159977090 heartbeat IPC: 1.27575 cumulative IPC: 1.27574 (Simulation time: 0 hr 9 min 7 sec) 
Heartbeat CPU 0 instructions: 260000002 cycles: 167811124 heartbeat IPC: 1.27648 cumulative IPC: 1.27579 (Simulation time: 0 hr 9 min 27 sec) 
Heartbeat CPU 0 instructions: 270000000 cycles: 175619285 heartbeat IPC: 1.28071 cumulative IPC: 1.27608 (Simulation time: 0 hr 9 min 47 sec) 
Heartbeat CPU 0 instructions: 280000001 cycles: 183431147 heartbeat IPC: 1.2801 cumulative IPC: 1.2763 (Simulation time: 0 hr 10 min 7 sec) 
Heartbeat CPU 0 instructions: 290000000 cycles: 191251660 heartbeat IPC: 1.27869 cumulative IPC: 1.27642 (Simulation time: 0 hr 10 min 27 sec) 
Heartbeat CPU 0 instructions: 300000000 cycles: 199077507 heartbeat IPC: 1.27782 cumulative IPC: 1.27649 (Simulation time: 0 hr 10 min 46 sec) 
Heartbeat CPU 0 instructions: 310000001 cycles: 206925252 heartbeat IPC: 1.27425 cumulative IPC: 1.27639 (Simulation time: 0 hr 11 min 6 sec) 
Heartbeat CPU 0 instructions: 320000000 cycles: 214759285 heartbeat IPC: 1.27648 cumulative IPC: 1.27639 (Simulation time: 0 hr 11 min 26 sec) 
Heartbeat CPU 0 instructions: 330000000 cycles: 222724615 heartbeat IPC: 1.25544 cumulative IPC: 1.27547 (Simulation time: 0 hr 11 min 46 sec) 
Heartbeat CPU 0 instructions: 340000000 cycles: 230554171 heartbeat IPC: 1.27721 cumulative IPC: 1.27554 (Simulation time: 0 hr 12 min 6 sec) 
Heartbeat CPU 0 instructions: 350000000 cycles: 238425197 heartbeat IPC: 1.27048 cumulative IPC: 1.27534 (Simulation time: 0 hr 12 min 26 sec) 
Heartbeat CPU 0 instructions: 360000003 cycles: 246257319 heartbeat IPC: 1.27679 cumulative IPC: 1.27539 (Simulation time: 0 hr 12 min 46 sec) 
Heartbeat CPU 0 instructions: 370000001 cycles: 254123652 heartbeat IPC: 1.27124 cumulative IPC: 1.27524 (Simulation time: 0 hr 13 min 6 sec) 
Heartbeat CPU 0 instructions: 380000002 cycles: 261953124 heartbeat IPC: 1.27723 cumulative IPC: 1.27531 (Simulation time: 0 hr 13 min 26 sec) 
Heartbeat CPU 0 instructions: 390000001 cycles: 269806223 heartbeat IPC: 1.27338 cumulative IPC: 1.27524 (Simulation time: 0 hr 13 min 46 sec) 
Heartbeat CPU 0 instructions: 400000002 cycles: 277628426 heartbeat IPC: 1.27841 cumulative IPC: 1.27535 (Simulation time: 0 hr 14 min 6 sec) 
Heartbeat CPU 0 instructions: 410000000 cycles: 285455558 heartbeat IPC: 1.27761 cumulative IPC: 1.27542 (Simulation time: 0 hr 14 min 26 sec) 
Heartbeat CPU 0 instructions: 420000000 cycles: 293314191 heartbeat IPC: 1.27249 cumulative IPC: 1.27533 (Simulation time: 0 hr 14 min 46 sec) 
Heartbeat CPU 0 instructions: 430000003 cycles: 301157878 heartbeat IPC: 1.27491 cumulative IPC: 1.27532 (Simulation time: 0 hr 15 min 5 sec) 
Heartbeat CPU 0 instructions: 440000000 cycles: 309023403 heartbeat IPC: 1.27137 cumulative IPC: 1.2752 (Simulation time: 0 hr 15 min 25 sec) 
Heartbeat CPU 0 instructions: 450000001 cycles: 316909261 heartbeat IPC: 1.26809 cumulative IPC: 1.27499 (Simulation time: 0 hr 15 min 45 sec) 
Heartbeat CPU 0 instructions: 460000002 cycles: 324813202 heartbeat IPC: 1.26519 cumulative IPC: 1.27472 (Simulation time: 0 hr 16 min 5 sec) 
Heartbeat CPU 0 instructions: 470000002 cycles: 332731323 heartbeat IPC: 1.26293 cumulative IPC: 1.2744 (Simulation time: 0 hr 16 min 25 sec) 
Heartbeat CPU 0 instructions: 480000000 cycles: 340646170 heartbeat IPC: 1.26345 cumulative IPC: 1.27411 (Simulation time: 0 hr 16 min 47 sec) 
Heartbeat CPU 0 instructions: 490000000 cycles: 348538193 heartbeat IPC: 1.2671 cumulative IPC: 1.27393 (Simulation time: 0 hr 17 min 7 sec) 
Heartbeat CPU 0 instructions: 500000003 cycles: 356481757 heartbeat IPC: 1.25888 cumulative IPC: 1.27355 (Simulation time: 0 hr 17 min 27 sec) 
Heartbeat CPU 0 instructions: 510000000 cycles: 364420796 heartbeat IPC: 1.2596 cumulative IPC: 1.2732 (Simulation time: 0 hr 17 min 47 sec) 
Heartbeat CPU 0 instructions: 520000000 cycles: 372415928 heartbeat IPC: 1.25076 cumulative IPC: 1.27266 (Simulation time: 0 hr 18 min 7 sec) 
Heartbeat CPU 0 instructions: 530000002 cycles: 380345857 heartbeat IPC: 1.26105 cumulative IPC: 1.27239 (Simulation time: 0 hr 18 min 27 sec) 
Heartbeat CPU 0 instructions: 540000003 cycles: 388247859 heartbeat IPC: 1.2655 cumulative IPC: 1.27223 (Simulation time: 0 hr 18 min 47 sec) 
Heartbeat CPU 0 instructions: 550000000 cycles: 396159224 heartbeat IPC: 1.264 cumulative IPC: 1.27205 (Simulation time: 0 hr 19 min 8 sec) 
Heartbeat CPU 0 instructions: 560000001 cycles: 404079766 heartbeat IPC: 1.26254 cumulative IPC: 1.27184 (Simulation time: 0 hr 19 min 28 sec) 
Heartbeat CPU 0 instructions: 570000001 cycles: 411983059 heartbeat IPC: 1.2653 cumulative IPC: 1.2717 (Simulation time: 0 hr 19 min 48 sec) 
Heartbeat CPU 0 instructions: 580000002 cycles: 419840751 heartbeat IPC: 1.27264 cumulative IPC: 1.27172 (Simulation time: 0 hr 20 min 8 sec) 
Heartbeat CPU 0 instructions: 590000000 cycles: 427762229 heartbeat IPC: 1.26239 cumulative IPC: 1.27153 (Simulation time: 0 hr 20 min 28 sec) 
Heartbeat CPU 0 instructions: 600000003 cycles: 435630297 heartbeat IPC: 1.27096 cumulative IPC: 1.27151 (Simulation time: 0 hr 20 min 48 sec) 
Heartbeat CPU 0 instructions: 610000000 cycles: 443523298 heartbeat IPC: 1.26694 cumulative IPC: 1.27142 (Simulation time: 0 hr 21 min 8 sec) 
Heartbeat CPU 0 instructions: 620000000 cycles: 451405215 heartbeat IPC: 1.26873 cumulative IPC: 1.27137 (Simulation time: 0 hr 21 min 28 sec) 
Heartbeat CPU 0 instructions: 630000000 cycles: 459314168 heartbeat IPC: 1.26439 cumulative IPC: 1.27124 (Simulation time: 0 hr 21 min 48 sec) 
Heartbeat CPU 0 instructions: 640000003 cycles: 467202830 heartbeat IPC: 1.26764 cumulative IPC: 1.27117 (Simulation time: 0 hr 22 min 8 sec) 
Heartbeat CPU 0 instructions: 650000003 cycles: 475079883 heartbeat IPC: 1.26951 cumulative IPC: 1.27114 (Simulation time: 0 hr 22 min 28 sec) 
Heartbeat CPU 0 instructions: 660000000 cycles: 482973981 heartbeat IPC: 1.26677 cumulative IPC: 1.27106 (Simulation time: 0 hr 22 min 49 sec) 
Heartbeat CPU 0 instructions: 670000002 cycles: 490885829 heartbeat IPC: 1.26393 cumulative IPC: 1.27094 (Simulation time: 0 hr 23 min 9 sec) 
Heartbeat CPU 0 instructions: 680000000 cycles: 498793108 heartbeat IPC: 1.26466 cumulative IPC: 1.27083 (Simulation time: 0 hr 23 min 29 sec) 
Heartbeat CPU 0 instructions: 690000003 cycles: 506683994 heartbeat IPC: 1.26729 cumulative IPC: 1.27077 (Simulation time: 0 hr 23 min 49 sec) 
Heartbeat CPU 0 instructions: 700000003 cycles: 514598087 heartbeat IPC: 1.26357 cumulative IPC: 1.27065 (Simulation time: 0 hr 24 min 9 sec) 
Heartbeat CPU 0 instructions: 710000000 cycles: 522660387 heartbeat IPC: 1.24034 cumulative IPC: 1.27014 (Simulation time: 0 hr 24 min 29 sec) 
Heartbeat CPU 0 instructions: 720000000 cycles: 530715480 heartbeat IPC: 1.24145 cumulative IPC: 1.26967 (Simulation time: 0 hr 24 min 50 sec) 
Heartbeat CPU 0 instructions: 730000001 cycles: 538704179 heartbeat IPC: 1.25177 cumulative IPC: 1.26938 (Simulation time: 0 hr 25 min 10 sec) 
Heartbeat CPU 0 instructions: 740000002 cycles: 546600221 heartbeat IPC: 1.26646 cumulative IPC: 1.26933 (Simulation time: 0 hr 25 min 30 sec) 
Heartbeat CPU 0 instructions: 750000002 cycles: 554531832 heartbeat IPC: 1.26078 cumulative IPC: 1.2692 (Simulation time: 0 hr 25 min 50 sec) 
Heartbeat CPU 0 instructions: 760000001 cycles: 562419898 heartbeat IPC: 1.26774 cumulative IPC: 1.26918 (Simulation time: 0 hr 26 min 10 sec) 
Heartbeat CPU 0 instructions: 770000000 cycles: 570297966 heartbeat IPC: 1.26935 cumulative IPC: 1.26918 (Simulation time: 0 hr 26 min 30 sec) 
Heartbeat CPU 0 instructions: 780000001 cycles: 578176801 heartbeat IPC: 1.26922 cumulative IPC: 1.26918 (Simulation time: 0 hr 26 min 50 sec) 
Heartbeat CPU 0 instructions: 790000001 cycles: 586026173 heartbeat IPC: 1.27399 cumulative IPC: 1.26925 (Simulation time: 0 hr 27 min 10 sec) 
Heartbeat CPU 0 instructions: 800000000 cycles: 593902019 heartbeat IPC: 1.2697 cumulative IPC: 1.26926 (Simulation time: 0 hr 27 min 31 sec) 
Heartbeat CPU 0 instructions: 810000003 cycles: 601759875 heartbeat IPC: 1.27261 cumulative IPC: 1.2693 (Simulation time: 0 hr 27 min 51 sec) 
Heartbeat CPU 0 instructions: 820000001 cycles: 609576425 heartbeat IPC: 1.27934 cumulative IPC: 1.26944 (Simulation time: 0 hr 28 min 11 sec) 
Heartbeat CPU 0 instructions: 830000002 cycles: 617404842 heartbeat IPC: 1.2774 cumulative IPC: 1.26955 (Simulation time: 0 hr 28 min 31 sec) 
Heartbeat CPU 0 instructions: 840000000 cycles: 625236080 heartbeat IPC: 1.27694 cumulative IPC: 1.26965 (Simulation time: 0 hr 28 min 51 sec) 
Heartbeat CPU 0 instructions: 850000001 cycles: 633066560 heartbeat IPC: 1.27706 cumulative IPC: 1.26975 (Simulation time: 0 hr 29 min 11 sec) 
Heartbeat CPU 0 instructions: 860000000 cycles: 640916170 heartbeat IPC: 1.27395 cumulative IPC: 1.2698 (Simulation time: 0 hr 29 min 31 sec) 
Heartbeat CPU 0 instructions: 870000003 cycles: 648739688 heartbeat IPC: 1.2782 cumulative IPC: 1.26991 (Simulation time: 0 hr 29 min 51 sec) 
Heartbeat CPU 0 instructions: 880000000 cycles: 656593678 heartbeat IPC: 1.27324 cumulative IPC: 1.26995 (Simulation time: 0 hr 30 min 11 sec) 
Heartbeat CPU 0 instructions: 890000002 cycles: 664410472 heartbeat IPC: 1.2793 cumulative IPC: 1.27007 (Simulation time: 0 hr 30 min 32 sec) 
Heartbeat CPU 0 instructions: 900000001 cycles: 672239653 heartbeat IPC: 1.27727 cumulative IPC: 1.27016 (Simulation time: 0 hr 30 min 52 sec) 
Heartbeat CPU 0 instructions: 910000001 cycles: 680074911 heartbeat IPC: 1.27628 cumulative IPC: 1.27024 (Simulation time: 0 hr 31 min 12 sec) 
Heartbeat CPU 0 instructions: 920000003 cycles: 687918310 heartbeat IPC: 1.27496 cumulative IPC: 1.27029 (Simulation time: 0 hr 31 min 32 sec) 
Heartbeat CPU 0 instructions: 930000000 cycles: 695826732 heartbeat IPC: 1.26447 cumulative IPC: 1.27022 (Simulation time: 0 hr 31 min 52 sec) 
Heartbeat CPU 0 instructions: 940000001 cycles: 703769761 heartbeat IPC: 1.25897 cumulative IPC: 1.27009 (Simulation time: 0 hr 32 min 13 sec) 
Heartbeat CPU 0 instructions: 950000000 cycles: 711657147 heartbeat IPC: 1.26785 cumulative IPC: 1.27006 (Simulation time: 0 hr 32 min 33 sec) 
Heartbeat CPU 0 instructions: 960000002 cycles: 719624868 heartbeat IPC: 1.25506 cumulative IPC: 1.26989 (Simulation time: 0 hr 32 min 53 sec) 
Heartbeat CPU 0 instructions: 970000000 cycles: 727598029 heartbeat IPC: 1.25421 cumulative IPC: 1.2697 (Simulation time: 0 hr 33 min 14 sec) 
Heartbeat CPU 0 instructions: 980000002 cycles: 735551963 heartbeat IPC: 1.25724 cumulative IPC: 1.26956 (Simulation time: 0 hr 33 min 34 sec) 
Heartbeat CPU 0 instructions: 990000000 cycles: 743502953 heartbeat IPC: 1.2577 cumulative IPC: 1.26943 (Simulation time: 0 hr 33 min 54 sec) 
Heartbeat CPU 0 instructions: 1000000000 cycles: 751446979 heartbeat IPC: 1.25881 cumulative IPC: 1.26931 (Simulation time: 0 hr 34 min 15 sec) 
Heartbeat CPU 0 instructions: 1010000000 cycles: 759452173 heartbeat IPC: 1.24919 cumulative IPC: 1.26908 (Simulation time: 0 hr 34 min 35 sec) 
Heartbeat CPU 0 instructions: 1020000000 cycles: 767491160 heartbeat IPC: 1.24394 cumulative IPC: 1.2688 (Simulation time: 0 hr 34 min 55 sec) 
Heartbeat CPU 0 instructions: 1030000000 cycles: 775535899 heartbeat IPC: 1.24305 cumulative IPC: 1.26852 (Simulation time: 0 hr 35 min 15 sec) 
Heartbeat CPU 0 instructions: 1040000001 cycles: 783604673 heartbeat IPC: 1.23935 cumulative IPC: 1.2682 (Simulation time: 0 hr 35 min 36 sec) 
Heartbeat CPU 0 instructions: 1050000000 cycles: 791720235 heartbeat IPC: 1.2322 cumulative IPC: 1.26781 (Simulation time: 0 hr 35 min 56 sec) 
Heartbeat CPU 0 instructions: 1060000001 cycles: 799828063 heartbeat IPC: 1.23338 cumulative IPC: 1.26744 (Simulation time: 0 hr 36 min 17 sec) 
Heartbeat CPU 0 instructions: 1070000003 cycles: 807944973 heartbeat IPC: 1.232 cumulative IPC: 1.26707 (Simulation time: 0 hr 36 min 37 sec) 
Heartbeat CPU 0 instructions: 1080000000 cycles: 816053590 heartbeat IPC: 1.23326 cumulative IPC: 1.26671 (Simulation time: 0 hr 36 min 57 sec) 
Heartbeat CPU 0 instructions: 1090000000 cycles: 824200205 heartbeat IPC: 1.2275 cumulative IPC: 1.26631 (Simulation time: 0 hr 37 min 18 sec) 
Heartbeat CPU 0 instructions: 1100000000 cycles: 832343310 heartbeat IPC: 1.22803 cumulative IPC: 1.26591 (Simulation time: 0 hr 37 min 38 sec) 
Finished CPU 0 instructions: 1000000000 cycles: 789944973 cumulative IPC: 1.26591 (Simulation time: 0 hr 37 min 38 sec) 

ChampSim completed all CPUs

Region of Interest Statistics

CPU 0 cumulative IPC: 1.26591 instructions: 1000000000 cycles: 789944973
L1D TOTAL     ACCESS:  317577360  HIT:  312532972  MISS:    5044388
L1D LOAD      ACCESS:  206973301  HIT:  201935823  MISS:    5037478
L1D RFO       ACCESS:  110604059  HIT:  110597149  MISS:       6910
L1D PREFETCH  ACCESS:          0  HIT:          0  MISS:          0
L1D WRITEBACK ACCESS:          0  HIT:          0  MISS:          0
L1D PREFETCH  REQUESTED:          0  ISSUED:          0  USEFUL:          0  USELESS:          0
L1D AVERAGE MISS LATENCY: 17.4577 cycles
L1I TOTAL     ACCESS:  157504309  HIT:  157504307  MISS:          2
L1I LOAD      ACCESS:  157504309  HIT:  157504307  MISS:          2
L1I RFO       ACCESS:          0  HIT:          0  MISS:          0
L1I PREFETCH  ACCESS:          0  HIT:          0  MISS:          0
L1I WRITEBACK ACCESS:          0  HIT:          0  MISS:          0
L1I PREFETCH  REQUESTED:          0  ISSUED:          0  USEFUL:          0  USELESS:          0
L1I AVERAGE MISS LATENCY: 235 cycles
L2C TOTAL     ACCESS:    6537763  HIT:    6330050  MISS:     207713
L2C LOAD      ACCESS:    5037478  HIT:    4830637  MISS:     206841
L2C RFO       ACCESS:       6910  HIT:       6039  MISS:        871
L2C PREFETCH  ACCESS:          0  HIT:          0  MISS:          0
L2C WRITEBACK ACCESS:    1493375  HIT:    1493374  MISS:          1
L2C PREFETCH  REQUESTED:          0  ISSUED:          0  USEFUL:          0  USELESS:          0
L2C AVERAGE MISS LATENCY: 130.795 cycles
LLC TOTAL     ACCESS:     218398  HIT:      25610  MISS:     192788
LLC LOAD      ACCESS:     206841  HIT:      15434  MISS:     191407
LLC RFO       ACCESS:        871  HIT:        870  MISS:          1
LLC PREFETCH  ACCESS:          0  HIT:          0  MISS:          0
LLC WRITEBACK ACCESS:      10686  HIT:       9306  MISS:       1380
LLC PREFETCH  REQUESTED:          0  ISSUED:          0  USEFUL:          0  USELESS:          0
LLC AVERAGE MISS LATENCY: 97.7587 cycles
Major fault: 0 Minor fault: 8146
==============================
Perceptron RRIP Stats:
   Num Updates:          6327
   Num Primary Trains:   153
   Num Secondary Trains: 173
==============================
primary_perceptron #0: 7 1 5 -3 1 -1 -5 -3 1 3 1 5 1 -3 3 -19 
secondary_perceptron #0: 5 3 3 -5 5 -3 -3 -3 1 3 1 5 -1 -1 1 -1 -1 1 1 1 -25 


DRAM Statistics
 CHANNEL 0
 RQ ROW_BUFFER_HIT:     162737  ROW_BUFFER_MISS:      28671
 DBUS_CONGESTED:       1410
 WQ ROW_BUFFER_HIT:          6  ROW_BUFFER_MISS:       1497  FULL:          0

 AVG_CONGESTED_CYCLE: 4

CPU 0 Branch Prediction Accuracy: 97.1012% MPKI: 2.80613 Average ROB Occupancy at Mispredict: 175.218

Branch types
NOT_BRANCH: 903195904 90.3196%
BRANCH_DIRECT_JUMP: 8301504 0.83015%
BRANCH_INDIRECT: 281 2.81e-05%
BRANCH_CONDITIONAL: 66385742 6.63857%
BRANCH_DIRECT_CALL: 11058164 1.10582%
BRANCH_INDIRECT_CALL: 0 0%
BRANCH_RETURN: 11058165 1.10582%
BRANCH_OTHER: 0 0%

