
*** ChampSim Multicore Out-of-Order Simulator ***

Warmup Instructions: 100000000
Simulation Instructions: 1000000000
Number of CPUs: 1
LLC sets: 2048
LLC ways: 16
Off-chip DRAM Size: 4096 MB Channels: 1 Width: 64-bit Data Rate: 3200 MT/s

CPU 0 runs /scratch/user/kevin.weston/dpc3-traces/644.champsimtrace.xz
CPU 0 Bimodal branch predictor
Initialize SHIP state
Assign rand_sets[0]: 454  LLC: 2048
rand_sets[0]: 454
Assign rand_sets[1]: 1662  LLC: 2048
rand_sets[1]: 1662
Assign rand_sets[2]: 1921  LLC: 2048
rand_sets[2]: 1921
Assign rand_sets[3]: 1131  LLC: 2048
rand_sets[3]: 1131
Assign rand_sets[4]: 331  LLC: 2048
rand_sets[4]: 331
Assign rand_sets[5]: 1531  LLC: 2048
rand_sets[5]: 1531
Assign rand_sets[6]: 482  LLC: 2048
rand_sets[6]: 482
Assign rand_sets[7]: 1275  LLC: 2048
rand_sets[7]: 1275
Assign rand_sets[8]: 1876  LLC: 2048
rand_sets[8]: 1876
Assign rand_sets[9]: 2038  LLC: 2048
rand_sets[9]: 2038
Assign rand_sets[10]: 701  LLC: 2048
rand_sets[10]: 701
Assign rand_sets[11]: 479  LLC: 2048
rand_sets[11]: 479
Assign rand_sets[12]: 892  LLC: 2048
rand_sets[12]: 892
Assign rand_sets[13]: 1820  LLC: 2048
rand_sets[13]: 1820
Assign rand_sets[14]: 1505  LLC: 2048
rand_sets[14]: 1505
Assign rand_sets[15]: 1159  LLC: 2048
rand_sets[15]: 1159
Assign rand_sets[16]: 513  LLC: 2048
rand_sets[16]: 513
Assign rand_sets[17]: 703  LLC: 2048
rand_sets[17]: 703
Assign rand_sets[18]: 561  LLC: 2048
rand_sets[18]: 561
Assign rand_sets[19]: 990  LLC: 2048
rand_sets[19]: 990
Assign rand_sets[20]: 342  LLC: 2048
rand_sets[20]: 342
Assign rand_sets[21]: 882  LLC: 2048
rand_sets[21]: 882
Assign rand_sets[22]: 15  LLC: 2048
rand_sets[22]: 15
Assign rand_sets[23]: 71  LLC: 2048
rand_sets[23]: 71
Assign rand_sets[24]: 1127  LLC: 2048
rand_sets[24]: 1127
Assign rand_sets[25]: 1382  LLC: 2048
rand_sets[25]: 1382
Assign rand_sets[26]: 647  LLC: 2048
rand_sets[26]: 647
Assign rand_sets[27]: 857  LLC: 2048
rand_sets[27]: 857
Assign rand_sets[28]: 1450  LLC: 2048
rand_sets[28]: 1450
Assign rand_sets[29]: 1160  LLC: 2048
rand_sets[29]: 1160
Assign rand_sets[30]: 1852  LLC: 2048
rand_sets[30]: 1852
Assign rand_sets[31]: 1881  LLC: 2048
rand_sets[31]: 1881
Assign rand_sets[32]: 1770  LLC: 2048
rand_sets[32]: 1770
Assign rand_sets[33]: 1622  LLC: 2048
rand_sets[33]: 1622
Assign rand_sets[34]: 275  LLC: 2048
rand_sets[34]: 275
Assign rand_sets[35]: 635  LLC: 2048
rand_sets[35]: 635
Assign rand_sets[36]: 466  LLC: 2048
rand_sets[36]: 466
Assign rand_sets[37]: 1413  LLC: 2048
rand_sets[37]: 1413
Assign rand_sets[38]: 417  LLC: 2048
rand_sets[38]: 417
Assign rand_sets[39]: 472  LLC: 2048
rand_sets[39]: 472
Assign rand_sets[40]: 1340  LLC: 2048
rand_sets[40]: 1340
Assign rand_sets[41]: 852  LLC: 2048
rand_sets[41]: 852
Assign rand_sets[42]: 1365  LLC: 2048
rand_sets[42]: 1365
Assign rand_sets[43]: 47  LLC: 2048
rand_sets[43]: 47
Assign rand_sets[44]: 823  LLC: 2048
rand_sets[44]: 823
Assign rand_sets[45]: 686  LLC: 2048
rand_sets[45]: 686
Assign rand_sets[46]: 1637  LLC: 2048
rand_sets[46]: 1637
Assign rand_sets[47]: 1115  LLC: 2048
rand_sets[47]: 1115
Assign rand_sets[48]: 986  LLC: 2048
rand_sets[48]: 986
Assign rand_sets[49]: 258  LLC: 2048
rand_sets[49]: 258
Assign rand_sets[50]: 633  LLC: 2048
rand_sets[50]: 633
Assign rand_sets[51]: 920  LLC: 2048
rand_sets[51]: 920
Assign rand_sets[52]: 204  LLC: 2048
rand_sets[52]: 204
Assign rand_sets[53]: 227  LLC: 2048
rand_sets[53]: 227
Assign rand_sets[54]: 1818  LLC: 2048
rand_sets[54]: 1818
Assign rand_sets[55]: 886  LLC: 2048
rand_sets[55]: 886
Assign rand_sets[56]: 1422  LLC: 2048
rand_sets[56]: 1422
Assign rand_sets[57]: 607  LLC: 2048
rand_sets[57]: 607
Assign rand_sets[58]: 217  LLC: 2048
rand_sets[58]: 217
Assign rand_sets[59]: 1945  LLC: 2048
rand_sets[59]: 1945
Assign rand_sets[60]: 143  LLC: 2048
rand_sets[60]: 143
Assign rand_sets[61]: 1311  LLC: 2048
rand_sets[61]: 1311
Assign rand_sets[62]: 319  LLC: 2048
rand_sets[62]: 319
Assign rand_sets[63]: 1846  LLC: 2048
rand_sets[63]: 1846
Assign rand_sets[64]: 238  LLC: 2048
rand_sets[64]: 238
Assign rand_sets[65]: 67  LLC: 2048
rand_sets[65]: 67
Assign rand_sets[66]: 1912  LLC: 2048
rand_sets[66]: 1912
Assign rand_sets[67]: 1613  LLC: 2048
rand_sets[67]: 1613
Assign rand_sets[68]: 1293  LLC: 2048
rand_sets[68]: 1293
Assign rand_sets[69]: 1018  LLC: 2048
rand_sets[69]: 1018
Assign rand_sets[70]: 1982  LLC: 2048
rand_sets[70]: 1982
Assign rand_sets[71]: 1702  LLC: 2048
rand_sets[71]: 1702
Assign rand_sets[72]: 1498  LLC: 2048
rand_sets[72]: 1498
Assign rand_sets[73]: 228  LLC: 2048
rand_sets[73]: 228
Assign rand_sets[74]: 1414  LLC: 2048
rand_sets[74]: 1414
Assign rand_sets[75]: 1166  LLC: 2048
rand_sets[75]: 1166
Assign rand_sets[76]: 732  LLC: 2048
rand_sets[76]: 732
Assign rand_sets[77]: 297  LLC: 2048
rand_sets[77]: 297
Assign rand_sets[78]: 1133  LLC: 2048
rand_sets[78]: 1133
Assign rand_sets[79]: 846  LLC: 2048
rand_sets[79]: 846
Assign rand_sets[80]: 767  LLC: 2048
rand_sets[80]: 767
Assign rand_sets[81]: 1878  LLC: 2048
rand_sets[81]: 1878
Assign rand_sets[82]: 993  LLC: 2048
rand_sets[82]: 993
Assign rand_sets[83]: 1392  LLC: 2048
rand_sets[83]: 1392
Assign rand_sets[84]: 1568  LLC: 2048
rand_sets[84]: 1568
Assign rand_sets[85]: 1787  LLC: 2048
rand_sets[85]: 1787
Assign rand_sets[86]: 399  LLC: 2048
rand_sets[86]: 399
Assign rand_sets[87]: 1201  LLC: 2048
rand_sets[87]: 1201
Assign rand_sets[88]: 856  LLC: 2048
rand_sets[88]: 856
Assign rand_sets[89]: 773  LLC: 2048
rand_sets[89]: 773
Assign rand_sets[90]: 1680  LLC: 2048
rand_sets[90]: 1680
Assign rand_sets[91]: 1477  LLC: 2048
rand_sets[91]: 1477
Assign rand_sets[92]: 9  LLC: 2048
rand_sets[92]: 9
Assign rand_sets[93]: 1500  LLC: 2048
rand_sets[93]: 1500
Assign rand_sets[94]: 851  LLC: 2048
rand_sets[94]: 851
Assign rand_sets[95]: 973  LLC: 2048
rand_sets[95]: 973
Assign rand_sets[96]: 938  LLC: 2048
rand_sets[96]: 938
Assign rand_sets[97]: 1851  LLC: 2048
rand_sets[97]: 1851
Assign rand_sets[98]: 1608  LLC: 2048
rand_sets[98]: 1608
Assign rand_sets[99]: 1945  LLC: 2048
Assign rand_sets[99]: 1106  LLC: 2048
rand_sets[99]: 1106
Assign rand_sets[100]: 979  LLC: 2048
rand_sets[100]: 979
Assign rand_sets[101]: 338  LLC: 2048
rand_sets[101]: 338
Assign rand_sets[102]: 1693  LLC: 2048
rand_sets[102]: 1693
Assign rand_sets[103]: 6  LLC: 2048
rand_sets[103]: 6
Assign rand_sets[104]: 671  LLC: 2048
rand_sets[104]: 671
Assign rand_sets[105]: 490  LLC: 2048
rand_sets[105]: 490
Assign rand_sets[106]: 1461  LLC: 2048
rand_sets[106]: 1461
Assign rand_sets[107]: 1730  LLC: 2048
rand_sets[107]: 1730
Assign rand_sets[108]: 1030  LLC: 2048
rand_sets[108]: 1030
Assign rand_sets[109]: 19  LLC: 2048
rand_sets[109]: 19
Assign rand_sets[110]: 920  LLC: 2048
Assign rand_sets[110]: 329  LLC: 2048
rand_sets[110]: 329
Assign rand_sets[111]: 1714  LLC: 2048
rand_sets[111]: 1714
Assign rand_sets[112]: 1  LLC: 2048
rand_sets[112]: 1
Assign rand_sets[113]: 1822  LLC: 2048
rand_sets[113]: 1822
Assign rand_sets[114]: 172  LLC: 2048
rand_sets[114]: 172
Assign rand_sets[115]: 1586  LLC: 2048
rand_sets[115]: 1586
Assign rand_sets[116]: 648  LLC: 2048
rand_sets[116]: 648
Assign rand_sets[117]: 1329  LLC: 2048
rand_sets[117]: 1329
Assign rand_sets[118]: 668  LLC: 2048
rand_sets[118]: 668
Assign rand_sets[119]: 1874  LLC: 2048
rand_sets[119]: 1874
Assign rand_sets[120]: 70  LLC: 2048
rand_sets[120]: 70
Assign rand_sets[121]: 661  LLC: 2048
rand_sets[121]: 661
Assign rand_sets[122]: 1649  LLC: 2048
rand_sets[122]: 1649
Assign rand_sets[123]: 1590  LLC: 2048
rand_sets[123]: 1590
Assign rand_sets[124]: 911  LLC: 2048
rand_sets[124]: 911
Assign rand_sets[125]: 1367  LLC: 2048
rand_sets[125]: 1367
Assign rand_sets[126]: 1782  LLC: 2048
rand_sets[126]: 1782
Assign rand_sets[127]: 569  LLC: 2048
rand_sets[127]: 569
Heartbeat CPU 0 instructions: 10000000 cycles: 4240550 heartbeat IPC: 2.35818 cumulative IPC: 2.35818 (Simulation time: 0 hr 0 min 25 sec) 
Heartbeat CPU 0 instructions: 20000001 cycles: 8479039 heartbeat IPC: 2.35933 cumulative IPC: 2.35876 (Simulation time: 0 hr 0 min 51 sec) 
Heartbeat CPU 0 instructions: 30000000 cycles: 12720050 heartbeat IPC: 2.35793 cumulative IPC: 2.35848 (Simulation time: 0 hr 1 min 16 sec) 
Heartbeat CPU 0 instructions: 40000002 cycles: 16961033 heartbeat IPC: 2.35794 cumulative IPC: 2.35835 (Simulation time: 0 hr 1 min 42 sec) 
Heartbeat CPU 0 instructions: 50000001 cycles: 21200070 heartbeat IPC: 2.35903 cumulative IPC: 2.35848 (Simulation time: 0 hr 2 min 8 sec) 
Heartbeat CPU 0 instructions: 60000000 cycles: 25441597 heartbeat IPC: 2.35764 cumulative IPC: 2.35834 (Simulation time: 0 hr 2 min 33 sec) 
Heartbeat CPU 0 instructions: 70000000 cycles: 29680426 heartbeat IPC: 2.35914 cumulative IPC: 2.35846 (Simulation time: 0 hr 2 min 59 sec) 
Heartbeat CPU 0 instructions: 80000002 cycles: 33919829 heartbeat IPC: 2.35882 cumulative IPC: 2.3585 (Simulation time: 0 hr 3 min 24 sec) 
Heartbeat CPU 0 instructions: 90000000 cycles: 38157205 heartbeat IPC: 2.35995 cumulative IPC: 2.35866 (Simulation time: 0 hr 3 min 50 sec) 
Heartbeat CPU 0 instructions: 100000001 cycles: 42398340 heartbeat IPC: 2.35786 cumulative IPC: 2.35858 (Simulation time: 0 hr 4 min 15 sec) 

Warmup complete CPU 0 instructions: 100000001 cycles: 42398340 (Simulation time: 0 hr 4 min 15 sec) 

Heartbeat CPU 0 instructions: 110000000 cycles: 50230771 heartbeat IPC: 1.27674 cumulative IPC: 1.27674 (Simulation time: 0 hr 4 min 36 sec) 
Heartbeat CPU 0 instructions: 120000002 cycles: 58051051 heartbeat IPC: 1.27873 cumulative IPC: 1.27773 (Simulation time: 0 hr 4 min 57 sec) 
Heartbeat CPU 0 instructions: 130000003 cycles: 65871280 heartbeat IPC: 1.27874 cumulative IPC: 1.27807 (Simulation time: 0 hr 5 min 18 sec) 
Heartbeat CPU 0 instructions: 140000001 cycles: 73680256 heartbeat IPC: 1.28058 cumulative IPC: 1.27869 (Simulation time: 0 hr 5 min 40 sec) 
Heartbeat CPU 0 instructions: 150000002 cycles: 81491789 heartbeat IPC: 1.28016 cumulative IPC: 1.27899 (Simulation time: 0 hr 6 min 1 sec) 
Heartbeat CPU 0 instructions: 160000000 cycles: 89331334 heartbeat IPC: 1.27558 cumulative IPC: 1.27842 (Simulation time: 0 hr 6 min 22 sec) 
Heartbeat CPU 0 instructions: 170000003 cycles: 97184647 heartbeat IPC: 1.27335 cumulative IPC: 1.27769 (Simulation time: 0 hr 6 min 43 sec) 
Heartbeat CPU 0 instructions: 180000002 cycles: 105028771 heartbeat IPC: 1.27484 cumulative IPC: 1.27733 (Simulation time: 0 hr 7 min 4 sec) 
Heartbeat CPU 0 instructions: 190000000 cycles: 112884828 heartbeat IPC: 1.2729 cumulative IPC: 1.27684 (Simulation time: 0 hr 7 min 25 sec) 
Heartbeat CPU 0 instructions: 200000003 cycles: 120703184 heartbeat IPC: 1.27904 cumulative IPC: 1.27706 (Simulation time: 0 hr 7 min 46 sec) 
Heartbeat CPU 0 instructions: 210000003 cycles: 128550997 heartbeat IPC: 1.27424 cumulative IPC: 1.2768 (Simulation time: 0 hr 8 min 8 sec) 
Heartbeat CPU 0 instructions: 220000000 cycles: 136427892 heartbeat IPC: 1.26954 cumulative IPC: 1.27619 (Simulation time: 0 hr 8 min 29 sec) 
Heartbeat CPU 0 instructions: 230000002 cycles: 144244311 heartbeat IPC: 1.27936 cumulative IPC: 1.27644 (Simulation time: 0 hr 8 min 50 sec) 
Heartbeat CPU 0 instructions: 240000002 cycles: 152092518 heartbeat IPC: 1.27418 cumulative IPC: 1.27628 (Simulation time: 0 hr 9 min 11 sec) 
Heartbeat CPU 0 instructions: 250000003 cycles: 159935128 heartbeat IPC: 1.27509 cumulative IPC: 1.2762 (Simulation time: 0 hr 9 min 32 sec) 
Heartbeat CPU 0 instructions: 260000002 cycles: 167768476 heartbeat IPC: 1.27659 cumulative IPC: 1.27622 (Simulation time: 0 hr 9 min 54 sec) 
Heartbeat CPU 0 instructions: 270000000 cycles: 175581266 heartbeat IPC: 1.27995 cumulative IPC: 1.27644 (Simulation time: 0 hr 10 min 15 sec) 
Heartbeat CPU 0 instructions: 280000001 cycles: 183391748 heartbeat IPC: 1.28033 cumulative IPC: 1.27666 (Simulation time: 0 hr 10 min 36 sec) 
Heartbeat CPU 0 instructions: 290000000 cycles: 191210567 heartbeat IPC: 1.27897 cumulative IPC: 1.27678 (Simulation time: 0 hr 10 min 57 sec) 
Heartbeat CPU 0 instructions: 300000000 cycles: 199037873 heartbeat IPC: 1.27758 cumulative IPC: 1.27682 (Simulation time: 0 hr 11 min 18 sec) 
Heartbeat CPU 0 instructions: 310000001 cycles: 206881696 heartbeat IPC: 1.27489 cumulative IPC: 1.27672 (Simulation time: 0 hr 11 min 39 sec) 
Heartbeat CPU 0 instructions: 320000000 cycles: 214712504 heartbeat IPC: 1.27701 cumulative IPC: 1.27674 (Simulation time: 0 hr 12 min 1 sec) 
Heartbeat CPU 0 instructions: 330000000 cycles: 222685982 heartbeat IPC: 1.25416 cumulative IPC: 1.27574 (Simulation time: 0 hr 12 min 22 sec) 
Heartbeat CPU 0 instructions: 340000000 cycles: 230533391 heartbeat IPC: 1.27431 cumulative IPC: 1.27568 (Simulation time: 0 hr 12 min 43 sec) 
Heartbeat CPU 0 instructions: 350000000 cycles: 238411862 heartbeat IPC: 1.26928 cumulative IPC: 1.27542 (Simulation time: 0 hr 13 min 4 sec) 
Heartbeat CPU 0 instructions: 360000003 cycles: 246239314 heartbeat IPC: 1.27756 cumulative IPC: 1.2755 (Simulation time: 0 hr 13 min 26 sec) 
Heartbeat CPU 0 instructions: 370000001 cycles: 254099469 heartbeat IPC: 1.27224 cumulative IPC: 1.27538 (Simulation time: 0 hr 13 min 47 sec) 
Heartbeat CPU 0 instructions: 380000002 cycles: 261928384 heartbeat IPC: 1.27732 cumulative IPC: 1.27545 (Simulation time: 0 hr 14 min 8 sec) 
Heartbeat CPU 0 instructions: 390000001 cycles: 269767471 heartbeat IPC: 1.27566 cumulative IPC: 1.27546 (Simulation time: 0 hr 14 min 29 sec) 
Heartbeat CPU 0 instructions: 400000002 cycles: 277585718 heartbeat IPC: 1.27906 cumulative IPC: 1.27558 (Simulation time: 0 hr 14 min 51 sec) 
Heartbeat CPU 0 instructions: 410000000 cycles: 285411392 heartbeat IPC: 1.27784 cumulative IPC: 1.27565 (Simulation time: 0 hr 15 min 12 sec) 
Heartbeat CPU 0 instructions: 420000000 cycles: 293269821 heartbeat IPC: 1.27252 cumulative IPC: 1.27555 (Simulation time: 0 hr 15 min 33 sec) 
Heartbeat CPU 0 instructions: 430000003 cycles: 301113080 heartbeat IPC: 1.27498 cumulative IPC: 1.27554 (Simulation time: 0 hr 15 min 54 sec) 
Heartbeat CPU 0 instructions: 440000000 cycles: 308970065 heartbeat IPC: 1.27275 cumulative IPC: 1.27545 (Simulation time: 0 hr 16 min 16 sec) 
Heartbeat CPU 0 instructions: 450000001 cycles: 316845017 heartbeat IPC: 1.26985 cumulative IPC: 1.27529 (Simulation time: 0 hr 16 min 37 sec) 
Heartbeat CPU 0 instructions: 460000002 cycles: 324745872 heartbeat IPC: 1.26569 cumulative IPC: 1.27502 (Simulation time: 0 hr 16 min 58 sec) 
Heartbeat CPU 0 instructions: 470000002 cycles: 332652085 heartbeat IPC: 1.26483 cumulative IPC: 1.27475 (Simulation time: 0 hr 17 min 20 sec) 
Heartbeat CPU 0 instructions: 480000000 cycles: 340546694 heartbeat IPC: 1.26669 cumulative IPC: 1.27453 (Simulation time: 0 hr 17 min 41 sec) 
Heartbeat CPU 0 instructions: 490000000 cycles: 348432840 heartbeat IPC: 1.26805 cumulative IPC: 1.27437 (Simulation time: 0 hr 18 min 2 sec) 
Heartbeat CPU 0 instructions: 500000003 cycles: 356359447 heartbeat IPC: 1.26157 cumulative IPC: 1.27404 (Simulation time: 0 hr 18 min 24 sec) 
Heartbeat CPU 0 instructions: 510000000 cycles: 364290329 heartbeat IPC: 1.26089 cumulative IPC: 1.27372 (Simulation time: 0 hr 18 min 45 sec) 
Heartbeat CPU 0 instructions: 520000000 cycles: 372275824 heartbeat IPC: 1.25227 cumulative IPC: 1.2732 (Simulation time: 0 hr 19 min 6 sec) 
Heartbeat CPU 0 instructions: 530000002 cycles: 380201941 heartbeat IPC: 1.26165 cumulative IPC: 1.27293 (Simulation time: 0 hr 19 min 28 sec) 
Heartbeat CPU 0 instructions: 540000003 cycles: 388097360 heartbeat IPC: 1.26656 cumulative IPC: 1.27278 (Simulation time: 0 hr 19 min 49 sec) 
Heartbeat CPU 0 instructions: 550000000 cycles: 395996567 heartbeat IPC: 1.26595 cumulative IPC: 1.27263 (Simulation time: 0 hr 20 min 10 sec) 
Heartbeat CPU 0 instructions: 560000001 cycles: 403913210 heartbeat IPC: 1.26316 cumulative IPC: 1.27242 (Simulation time: 0 hr 20 min 32 sec) 
Heartbeat CPU 0 instructions: 570000001 cycles: 411809711 heartbeat IPC: 1.26638 cumulative IPC: 1.27229 (Simulation time: 0 hr 20 min 53 sec) 
Heartbeat CPU 0 instructions: 580000002 cycles: 419664229 heartbeat IPC: 1.27315 cumulative IPC: 1.27231 (Simulation time: 0 hr 21 min 14 sec) 
Heartbeat CPU 0 instructions: 590000000 cycles: 427583429 heartbeat IPC: 1.26275 cumulative IPC: 1.27212 (Simulation time: 0 hr 21 min 36 sec) 
Heartbeat CPU 0 instructions: 600000003 cycles: 435449552 heartbeat IPC: 1.27127 cumulative IPC: 1.2721 (Simulation time: 0 hr 21 min 57 sec) 
Heartbeat CPU 0 instructions: 610000000 cycles: 443336242 heartbeat IPC: 1.26796 cumulative IPC: 1.27202 (Simulation time: 0 hr 22 min 18 sec) 
Heartbeat CPU 0 instructions: 620000000 cycles: 451209972 heartbeat IPC: 1.27005 cumulative IPC: 1.27198 (Simulation time: 0 hr 22 min 40 sec) 
Heartbeat CPU 0 instructions: 630000000 cycles: 459113096 heartbeat IPC: 1.26532 cumulative IPC: 1.27185 (Simulation time: 0 hr 23 min 1 sec) 
Heartbeat CPU 0 instructions: 640000003 cycles: 466998971 heartbeat IPC: 1.26809 cumulative IPC: 1.27178 (Simulation time: 0 hr 23 min 22 sec) 
Heartbeat CPU 0 instructions: 650000003 cycles: 474875508 heartbeat IPC: 1.26959 cumulative IPC: 1.27174 (Simulation time: 0 hr 23 min 44 sec) 
Heartbeat CPU 0 instructions: 660000000 cycles: 482771433 heartbeat IPC: 1.26648 cumulative IPC: 1.27165 (Simulation time: 0 hr 24 min 5 sec) 
Heartbeat CPU 0 instructions: 670000002 cycles: 490683582 heartbeat IPC: 1.26388 cumulative IPC: 1.27151 (Simulation time: 0 hr 24 min 26 sec) 
Heartbeat CPU 0 instructions: 680000000 cycles: 498589955 heartbeat IPC: 1.2648 cumulative IPC: 1.2714 (Simulation time: 0 hr 24 min 48 sec) 
Heartbeat CPU 0 instructions: 690000003 cycles: 506481020 heartbeat IPC: 1.26726 cumulative IPC: 1.27133 (Simulation time: 0 hr 25 min 9 sec) 
Heartbeat CPU 0 instructions: 700000003 cycles: 514391513 heartbeat IPC: 1.26414 cumulative IPC: 1.2712 (Simulation time: 0 hr 25 min 30 sec) 
Heartbeat CPU 0 instructions: 710000000 cycles: 522451873 heartbeat IPC: 1.24064 cumulative IPC: 1.27069 (Simulation time: 0 hr 25 min 52 sec) 
Heartbeat CPU 0 instructions: 720000000 cycles: 530515536 heartbeat IPC: 1.24013 cumulative IPC: 1.27019 (Simulation time: 0 hr 26 min 13 sec) 
Heartbeat CPU 0 instructions: 730000001 cycles: 538500591 heartbeat IPC: 1.25234 cumulative IPC: 1.2699 (Simulation time: 0 hr 26 min 34 sec) 
Heartbeat CPU 0 instructions: 740000002 cycles: 546392173 heartbeat IPC: 1.26717 cumulative IPC: 1.26986 (Simulation time: 0 hr 26 min 56 sec) 
Heartbeat CPU 0 instructions: 750000002 cycles: 554316386 heartbeat IPC: 1.26196 cumulative IPC: 1.26973 (Simulation time: 0 hr 27 min 17 sec) 
Heartbeat CPU 0 instructions: 760000001 cycles: 562199631 heartbeat IPC: 1.26851 cumulative IPC: 1.26972 (Simulation time: 0 hr 27 min 39 sec) 
Heartbeat CPU 0 instructions: 770000000 cycles: 570073894 heartbeat IPC: 1.26996 cumulative IPC: 1.26972 (Simulation time: 0 hr 28 min 0 sec) 
Heartbeat CPU 0 instructions: 780000001 cycles: 577952413 heartbeat IPC: 1.26927 cumulative IPC: 1.26971 (Simulation time: 0 hr 28 min 21 sec) 
Heartbeat CPU 0 instructions: 790000001 cycles: 585801000 heartbeat IPC: 1.27411 cumulative IPC: 1.26978 (Simulation time: 0 hr 28 min 42 sec) 
Heartbeat CPU 0 instructions: 800000000 cycles: 593675238 heartbeat IPC: 1.26996 cumulative IPC: 1.26978 (Simulation time: 0 hr 29 min 4 sec) 
Heartbeat CPU 0 instructions: 810000003 cycles: 601530410 heartbeat IPC: 1.27305 cumulative IPC: 1.26983 (Simulation time: 0 hr 29 min 25 sec) 
Heartbeat CPU 0 instructions: 820000001 cycles: 609346087 heartbeat IPC: 1.27948 cumulative IPC: 1.26996 (Simulation time: 0 hr 29 min 46 sec) 
Heartbeat CPU 0 instructions: 830000002 cycles: 617167275 heartbeat IPC: 1.27858 cumulative IPC: 1.27008 (Simulation time: 0 hr 30 min 8 sec) 
Heartbeat CPU 0 instructions: 840000000 cycles: 624985465 heartbeat IPC: 1.27907 cumulative IPC: 1.2702 (Simulation time: 0 hr 30 min 29 sec) 
Heartbeat CPU 0 instructions: 850000001 cycles: 632806570 heartbeat IPC: 1.27859 cumulative IPC: 1.27031 (Simulation time: 0 hr 30 min 50 sec) 
Heartbeat CPU 0 instructions: 860000000 cycles: 640634476 heartbeat IPC: 1.27748 cumulative IPC: 1.2704 (Simulation time: 0 hr 31 min 11 sec) 
Heartbeat CPU 0 instructions: 870000003 cycles: 648454585 heartbeat IPC: 1.27875 cumulative IPC: 1.27051 (Simulation time: 0 hr 31 min 33 sec) 
Heartbeat CPU 0 instructions: 880000000 cycles: 656289301 heartbeat IPC: 1.27637 cumulative IPC: 1.27058 (Simulation time: 0 hr 31 min 54 sec) 
Heartbeat CPU 0 instructions: 890000002 cycles: 664104342 heartbeat IPC: 1.27958 cumulative IPC: 1.2707 (Simulation time: 0 hr 32 min 15 sec) 
Heartbeat CPU 0 instructions: 900000001 cycles: 671931653 heartbeat IPC: 1.27758 cumulative IPC: 1.27078 (Simulation time: 0 hr 32 min 37 sec) 
Heartbeat CPU 0 instructions: 910000001 cycles: 679763634 heartbeat IPC: 1.27682 cumulative IPC: 1.27086 (Simulation time: 0 hr 32 min 58 sec) 
Heartbeat CPU 0 instructions: 920000003 cycles: 687603684 heartbeat IPC: 1.2755 cumulative IPC: 1.27091 (Simulation time: 0 hr 33 min 19 sec) 
Heartbeat CPU 0 instructions: 930000000 cycles: 695488000 heartbeat IPC: 1.26834 cumulative IPC: 1.27088 (Simulation time: 0 hr 33 min 41 sec) 
Heartbeat CPU 0 instructions: 940000001 cycles: 703390033 heartbeat IPC: 1.2655 cumulative IPC: 1.27082 (Simulation time: 0 hr 34 min 2 sec) 
Heartbeat CPU 0 instructions: 950000000 cycles: 711277561 heartbeat IPC: 1.26782 cumulative IPC: 1.27078 (Simulation time: 0 hr 34 min 23 sec) 
Heartbeat CPU 0 instructions: 960000002 cycles: 719244747 heartbeat IPC: 1.25515 cumulative IPC: 1.2706 (Simulation time: 0 hr 34 min 44 sec) 
Heartbeat CPU 0 instructions: 970000000 cycles: 727214646 heartbeat IPC: 1.25472 cumulative IPC: 1.27041 (Simulation time: 0 hr 35 min 5 sec) 
Heartbeat CPU 0 instructions: 980000002 cycles: 735168025 heartbeat IPC: 1.25733 cumulative IPC: 1.27026 (Simulation time: 0 hr 35 min 26 sec) 
Heartbeat CPU 0 instructions: 990000000 cycles: 743119769 heartbeat IPC: 1.25759 cumulative IPC: 1.27012 (Simulation time: 0 hr 35 min 47 sec) 
Heartbeat CPU 0 instructions: 1000000000 cycles: 751061900 heartbeat IPC: 1.25911 cumulative IPC: 1.27 (Simulation time: 0 hr 36 min 7 sec) 
Heartbeat CPU 0 instructions: 1010000000 cycles: 759066363 heartbeat IPC: 1.2493 cumulative IPC: 1.26977 (Simulation time: 0 hr 36 min 28 sec) 
Heartbeat CPU 0 instructions: 1020000000 cycles: 767103973 heartbeat IPC: 1.24415 cumulative IPC: 1.26948 (Simulation time: 0 hr 36 min 49 sec) 
Heartbeat CPU 0 instructions: 1030000000 cycles: 775148921 heartbeat IPC: 1.24302 cumulative IPC: 1.26919 (Simulation time: 0 hr 37 min 10 sec) 
Heartbeat CPU 0 instructions: 1040000001 cycles: 783215116 heartbeat IPC: 1.23974 cumulative IPC: 1.26887 (Simulation time: 0 hr 37 min 31 sec) 
Heartbeat CPU 0 instructions: 1050000000 cycles: 791328799 heartbeat IPC: 1.23249 cumulative IPC: 1.26848 (Simulation time: 0 hr 37 min 52 sec) 
Heartbeat CPU 0 instructions: 1060000001 cycles: 799428217 heartbeat IPC: 1.23466 cumulative IPC: 1.26811 (Simulation time: 0 hr 38 min 13 sec) 
Heartbeat CPU 0 instructions: 1070000003 cycles: 807538833 heartbeat IPC: 1.23295 cumulative IPC: 1.26774 (Simulation time: 0 hr 38 min 34 sec) 
Heartbeat CPU 0 instructions: 1080000000 cycles: 815646444 heartbeat IPC: 1.23341 cumulative IPC: 1.26738 (Simulation time: 0 hr 38 min 55 sec) 
Heartbeat CPU 0 instructions: 1090000000 cycles: 823789211 heartbeat IPC: 1.22808 cumulative IPC: 1.26697 (Simulation time: 0 hr 39 min 16 sec) 
Heartbeat CPU 0 instructions: 1100000000 cycles: 831930253 heartbeat IPC: 1.22834 cumulative IPC: 1.26657 (Simulation time: 0 hr 39 min 37 sec) 
Finished CPU 0 instructions: 1000000000 cycles: 789531920 cumulative IPC: 1.26657 (Simulation time: 0 hr 39 min 37 sec) 

ChampSim completed all CPUs

Region of Interest Statistics

CPU 0 cumulative IPC: 1.26657 instructions: 1000000000 cycles: 789531920
L1D TOTAL     ACCESS:  317576729  HIT:  312532343  MISS:    5044386
L1D LOAD      ACCESS:  206972656  HIT:  201935179  MISS:    5037477
L1D RFO       ACCESS:  110604073  HIT:  110597164  MISS:       6909
L1D PREFETCH  ACCESS:          0  HIT:          0  MISS:          0
L1D WRITEBACK ACCESS:          0  HIT:          0  MISS:          0
L1D PREFETCH  REQUESTED:          0  ISSUED:          0  USEFUL:          0  USELESS:          0
L1D AVERAGE MISS LATENCY: 17.3703 cycles
L1I TOTAL     ACCESS:  157504309  HIT:  157504307  MISS:          2
L1I LOAD      ACCESS:  157504309  HIT:  157504307  MISS:          2
L1I RFO       ACCESS:          0  HIT:          0  MISS:          0
L1I PREFETCH  ACCESS:          0  HIT:          0  MISS:          0
L1I WRITEBACK ACCESS:          0  HIT:          0  MISS:          0
L1I PREFETCH  REQUESTED:          0  ISSUED:          0  USEFUL:          0  USELESS:          0
L1I AVERAGE MISS LATENCY: 235 cycles
L2C TOTAL     ACCESS:    6537760  HIT:    6326738  MISS:     211022
L2C LOAD      ACCESS:    5037477  HIT:    4827348  MISS:     210129
L2C RFO       ACCESS:       6909  HIT:       6035  MISS:        874
L2C PREFETCH  ACCESS:          0  HIT:          0  MISS:          0
L2C WRITEBACK ACCESS:    1493374  HIT:    1493355  MISS:         19
L2C PREFETCH  REQUESTED:          0  ISSUED:          0  USEFUL:          0  USELESS:          0
L2C AVERAGE MISS LATENCY: 126.657 cycles
LLC TOTAL     ACCESS:     223061  HIT:      33585  MISS:     189476
LLC LOAD      ACCESS:     210129  HIT:      20748  MISS:     189381
LLC RFO       ACCESS:        874  HIT:        873  MISS:          1
LLC PREFETCH  ACCESS:          0  HIT:          0  MISS:          0
LLC WRITEBACK ACCESS:      12058  HIT:      11964  MISS:         94
LLC PREFETCH  REQUESTED:          0  ISSUED:          0  USEFUL:          0  USELESS:          0
LLC AVERAGE MISS LATENCY: 96.4478 cycles
Major fault: 0 Minor fault: 8146

DRAM Statistics
 CHANNEL 0
 RQ ROW_BUFFER_HIT:     164681  ROW_BUFFER_MISS:      24701
 DBUS_CONGESTED:       1293
 WQ ROW_BUFFER_HIT:          0  ROW_BUFFER_MISS:        218  FULL:          0

 AVG_CONGESTED_CYCLE: 4

CPU 0 Branch Prediction Accuracy: 97.1012% MPKI: 2.80613 Average ROB Occupancy at Mispredict: 175.219

Branch types
NOT_BRANCH: 903195904 90.3196%
BRANCH_DIRECT_JUMP: 8301504 0.83015%
BRANCH_INDIRECT: 281 2.81e-05%
BRANCH_CONDITIONAL: 66385742 6.63857%
BRANCH_DIRECT_CALL: 11058164 1.10582%
BRANCH_INDIRECT_CALL: 0 0%
BRANCH_RETURN: 11058165 1.10582%
BRANCH_OTHER: 0 0%

