
*** ChampSim Multicore Out-of-Order Simulator ***

Warmup Instructions: 100000000
Simulation Instructions: 1000000000
Number of CPUs: 1
LLC sets: 2048
LLC ways: 16
Off-chip DRAM Size: 4096 MB Channels: 1 Width: 64-bit Data Rate: 3200 MT/s

CPU 0 runs /scratch/user/kevin.weston/dpc3-traces/644.champsimtrace.xz
CPU 0 Bimodal branch predictor
Per-line RRPV Initialized
PRRIP State Initialized
Assign SAMPLER_SET[0]: 454  LLC: 2048
SAMPLER_SET[0]: 454
Assign SAMPLER_SET[1]: 1662  LLC: 2048
SAMPLER_SET[1]: 1662
Assign SAMPLER_SET[2]: 1921  LLC: 2048
SAMPLER_SET[2]: 1921
Assign SAMPLER_SET[3]: 1131  LLC: 2048
SAMPLER_SET[3]: 1131
Assign SAMPLER_SET[4]: 331  LLC: 2048
SAMPLER_SET[4]: 331
Assign SAMPLER_SET[5]: 1531  LLC: 2048
SAMPLER_SET[5]: 1531
Assign SAMPLER_SET[6]: 482  LLC: 2048
SAMPLER_SET[6]: 482
Assign SAMPLER_SET[7]: 1275  LLC: 2048
SAMPLER_SET[7]: 1275
Assign SAMPLER_SET[8]: 1876  LLC: 2048
SAMPLER_SET[8]: 1876
Assign SAMPLER_SET[9]: 2038  LLC: 2048
SAMPLER_SET[9]: 2038
Assign SAMPLER_SET[10]: 701  LLC: 2048
SAMPLER_SET[10]: 701
Assign SAMPLER_SET[11]: 479  LLC: 2048
SAMPLER_SET[11]: 479
Assign SAMPLER_SET[12]: 892  LLC: 2048
SAMPLER_SET[12]: 892
Assign SAMPLER_SET[13]: 1820  LLC: 2048
SAMPLER_SET[13]: 1820
Assign SAMPLER_SET[14]: 1505  LLC: 2048
SAMPLER_SET[14]: 1505
Assign SAMPLER_SET[15]: 1159  LLC: 2048
SAMPLER_SET[15]: 1159
Assign SAMPLER_SET[16]: 513  LLC: 2048
SAMPLER_SET[16]: 513
Assign SAMPLER_SET[17]: 703  LLC: 2048
SAMPLER_SET[17]: 703
Assign SAMPLER_SET[18]: 561  LLC: 2048
SAMPLER_SET[18]: 561
Assign SAMPLER_SET[19]: 990  LLC: 2048
SAMPLER_SET[19]: 990
Assign SAMPLER_SET[20]: 342  LLC: 2048
SAMPLER_SET[20]: 342
Assign SAMPLER_SET[21]: 882  LLC: 2048
SAMPLER_SET[21]: 882
Assign SAMPLER_SET[22]: 15  LLC: 2048
SAMPLER_SET[22]: 15
Assign SAMPLER_SET[23]: 71  LLC: 2048
SAMPLER_SET[23]: 71
Assign SAMPLER_SET[24]: 1127  LLC: 2048
SAMPLER_SET[24]: 1127
Assign SAMPLER_SET[25]: 1382  LLC: 2048
SAMPLER_SET[25]: 1382
Assign SAMPLER_SET[26]: 647  LLC: 2048
SAMPLER_SET[26]: 647
Assign SAMPLER_SET[27]: 857  LLC: 2048
SAMPLER_SET[27]: 857
Assign SAMPLER_SET[28]: 1450  LLC: 2048
SAMPLER_SET[28]: 1450
Assign SAMPLER_SET[29]: 1160  LLC: 2048
SAMPLER_SET[29]: 1160
Assign SAMPLER_SET[30]: 1852  LLC: 2048
SAMPLER_SET[30]: 1852
Assign SAMPLER_SET[31]: 1881  LLC: 2048
SAMPLER_SET[31]: 1881
Assign SAMPLER_SET[32]: 1770  LLC: 2048
SAMPLER_SET[32]: 1770
Assign SAMPLER_SET[33]: 1622  LLC: 2048
SAMPLER_SET[33]: 1622
Assign SAMPLER_SET[34]: 275  LLC: 2048
SAMPLER_SET[34]: 275
Assign SAMPLER_SET[35]: 635  LLC: 2048
SAMPLER_SET[35]: 635
Assign SAMPLER_SET[36]: 466  LLC: 2048
SAMPLER_SET[36]: 466
Assign SAMPLER_SET[37]: 1413  LLC: 2048
SAMPLER_SET[37]: 1413
Assign SAMPLER_SET[38]: 417  LLC: 2048
SAMPLER_SET[38]: 417
Assign SAMPLER_SET[39]: 472  LLC: 2048
SAMPLER_SET[39]: 472
Assign SAMPLER_SET[40]: 1340  LLC: 2048
SAMPLER_SET[40]: 1340
Assign SAMPLER_SET[41]: 852  LLC: 2048
SAMPLER_SET[41]: 852
Assign SAMPLER_SET[42]: 1365  LLC: 2048
SAMPLER_SET[42]: 1365
Assign SAMPLER_SET[43]: 47  LLC: 2048
SAMPLER_SET[43]: 47
Assign SAMPLER_SET[44]: 823  LLC: 2048
SAMPLER_SET[44]: 823
Assign SAMPLER_SET[45]: 686  LLC: 2048
SAMPLER_SET[45]: 686
Assign SAMPLER_SET[46]: 1637  LLC: 2048
SAMPLER_SET[46]: 1637
Assign SAMPLER_SET[47]: 1115  LLC: 2048
SAMPLER_SET[47]: 1115
Assign SAMPLER_SET[48]: 986  LLC: 2048
SAMPLER_SET[48]: 986
Assign SAMPLER_SET[49]: 258  LLC: 2048
SAMPLER_SET[49]: 258
Assign SAMPLER_SET[50]: 633  LLC: 2048
SAMPLER_SET[50]: 633
Assign SAMPLER_SET[51]: 920  LLC: 2048
SAMPLER_SET[51]: 920
Assign SAMPLER_SET[52]: 204  LLC: 2048
SAMPLER_SET[52]: 204
Assign SAMPLER_SET[53]: 227  LLC: 2048
SAMPLER_SET[53]: 227
Assign SAMPLER_SET[54]: 1818  LLC: 2048
SAMPLER_SET[54]: 1818
Assign SAMPLER_SET[55]: 886  LLC: 2048
SAMPLER_SET[55]: 886
Assign SAMPLER_SET[56]: 1422  LLC: 2048
SAMPLER_SET[56]: 1422
Assign SAMPLER_SET[57]: 607  LLC: 2048
SAMPLER_SET[57]: 607
Assign SAMPLER_SET[58]: 217  LLC: 2048
SAMPLER_SET[58]: 217
Assign SAMPLER_SET[59]: 1945  LLC: 2048
SAMPLER_SET[59]: 1945
Assign SAMPLER_SET[60]: 143  LLC: 2048
SAMPLER_SET[60]: 143
Assign SAMPLER_SET[61]: 1311  LLC: 2048
SAMPLER_SET[61]: 1311
Assign SAMPLER_SET[62]: 319  LLC: 2048
SAMPLER_SET[62]: 319
Assign SAMPLER_SET[63]: 1846  LLC: 2048
SAMPLER_SET[63]: 1846
Heartbeat CPU 0 instructions: 10000000 cycles: 4240551 heartbeat IPC: 2.35818 cumulative IPC: 2.35818 (Simulation time: 0 hr 0 min 28 sec) 
Heartbeat CPU 0 instructions: 20000001 cycles: 8479037 heartbeat IPC: 2.35933 cumulative IPC: 2.35876 (Simulation time: 0 hr 0 min 56 sec) 
Heartbeat CPU 0 instructions: 30000000 cycles: 12720047 heartbeat IPC: 2.35793 cumulative IPC: 2.35848 (Simulation time: 0 hr 1 min 23 sec) 
Heartbeat CPU 0 instructions: 40000002 cycles: 16961031 heartbeat IPC: 2.35794 cumulative IPC: 2.35835 (Simulation time: 0 hr 1 min 51 sec) 
Heartbeat CPU 0 instructions: 50000001 cycles: 21200073 heartbeat IPC: 2.35902 cumulative IPC: 2.35848 (Simulation time: 0 hr 2 min 20 sec) 
Heartbeat CPU 0 instructions: 60000000 cycles: 25441602 heartbeat IPC: 2.35764 cumulative IPC: 2.35834 (Simulation time: 0 hr 2 min 49 sec) 
Heartbeat CPU 0 instructions: 70000000 cycles: 29680436 heartbeat IPC: 2.35914 cumulative IPC: 2.35846 (Simulation time: 0 hr 3 min 17 sec) 
Heartbeat CPU 0 instructions: 80000002 cycles: 33919836 heartbeat IPC: 2.35882 cumulative IPC: 2.3585 (Simulation time: 0 hr 3 min 47 sec) 
Heartbeat CPU 0 instructions: 90000000 cycles: 38157208 heartbeat IPC: 2.35995 cumulative IPC: 2.35866 (Simulation time: 0 hr 4 min 17 sec) 
Heartbeat CPU 0 instructions: 100000001 cycles: 42398342 heartbeat IPC: 2.35786 cumulative IPC: 2.35858 (Simulation time: 0 hr 4 min 44 sec) 

Warmup complete CPU 0 instructions: 100000001 cycles: 42398342 (Simulation time: 0 hr 4 min 44 sec) 

Heartbeat CPU 0 instructions: 110000000 cycles: 50233437 heartbeat IPC: 1.27631 cumulative IPC: 1.27631 (Simulation time: 0 hr 5 min 8 sec) 
Heartbeat CPU 0 instructions: 120000002 cycles: 58055553 heartbeat IPC: 1.27843 cumulative IPC: 1.27737 (Simulation time: 0 hr 5 min 31 sec) 
Heartbeat CPU 0 instructions: 130000003 cycles: 65875164 heartbeat IPC: 1.27884 cumulative IPC: 1.27786 (Simulation time: 0 hr 5 min 53 sec) 
Heartbeat CPU 0 instructions: 140000001 cycles: 73686933 heartbeat IPC: 1.28012 cumulative IPC: 1.27842 (Simulation time: 0 hr 6 min 17 sec) 
Heartbeat CPU 0 instructions: 150000002 cycles: 81498722 heartbeat IPC: 1.28012 cumulative IPC: 1.27876 (Simulation time: 0 hr 6 min 41 sec) 
Heartbeat CPU 0 instructions: 160000000 cycles: 89339076 heartbeat IPC: 1.27545 cumulative IPC: 1.27821 (Simulation time: 0 hr 7 min 4 sec) 
Heartbeat CPU 0 instructions: 170000003 cycles: 97197575 heartbeat IPC: 1.27251 cumulative IPC: 1.27739 (Simulation time: 0 hr 7 min 27 sec) 
Heartbeat CPU 0 instructions: 180000002 cycles: 105047685 heartbeat IPC: 1.27387 cumulative IPC: 1.27695 (Simulation time: 0 hr 7 min 51 sec) 
Heartbeat CPU 0 instructions: 190000000 cycles: 112917431 heartbeat IPC: 1.27069 cumulative IPC: 1.27625 (Simulation time: 0 hr 8 min 15 sec) 
Heartbeat CPU 0 instructions: 200000003 cycles: 120754151 heartbeat IPC: 1.27604 cumulative IPC: 1.27623 (Simulation time: 0 hr 8 min 38 sec) 
Heartbeat CPU 0 instructions: 210000003 cycles: 128625570 heartbeat IPC: 1.27042 cumulative IPC: 1.2757 (Simulation time: 0 hr 9 min 2 sec) 
Heartbeat CPU 0 instructions: 220000000 cycles: 136522999 heartbeat IPC: 1.26623 cumulative IPC: 1.27491 (Simulation time: 0 hr 9 min 25 sec) 
Heartbeat CPU 0 instructions: 230000002 cycles: 144363428 heartbeat IPC: 1.27544 cumulative IPC: 1.27495 (Simulation time: 0 hr 9 min 50 sec) 
Heartbeat CPU 0 instructions: 240000002 cycles: 152261761 heartbeat IPC: 1.26609 cumulative IPC: 1.27431 (Simulation time: 0 hr 10 min 13 sec) 
Heartbeat CPU 0 instructions: 250000003 cycles: 160099898 heartbeat IPC: 1.27581 cumulative IPC: 1.27441 (Simulation time: 0 hr 10 min 37 sec) 
Heartbeat CPU 0 instructions: 260000002 cycles: 167931943 heartbeat IPC: 1.27681 cumulative IPC: 1.27456 (Simulation time: 0 hr 11 min 1 sec) 
Heartbeat CPU 0 instructions: 270000000 cycles: 175742371 heartbeat IPC: 1.28034 cumulative IPC: 1.2749 (Simulation time: 0 hr 11 min 25 sec) 
Heartbeat CPU 0 instructions: 280000001 cycles: 183554290 heartbeat IPC: 1.2801 cumulative IPC: 1.27519 (Simulation time: 0 hr 11 min 48 sec) 
Heartbeat CPU 0 instructions: 290000000 cycles: 191379094 heartbeat IPC: 1.27799 cumulative IPC: 1.27533 (Simulation time: 0 hr 12 min 13 sec) 
Heartbeat CPU 0 instructions: 300000000 cycles: 199205428 heartbeat IPC: 1.27774 cumulative IPC: 1.27545 (Simulation time: 0 hr 12 min 36 sec) 
Heartbeat CPU 0 instructions: 310000001 cycles: 207052832 heartbeat IPC: 1.27431 cumulative IPC: 1.2754 (Simulation time: 0 hr 12 min 59 sec) 
Heartbeat CPU 0 instructions: 320000000 cycles: 214887214 heartbeat IPC: 1.27642 cumulative IPC: 1.27544 (Simulation time: 0 hr 13 min 23 sec) 
Heartbeat CPU 0 instructions: 330000000 cycles: 222860123 heartbeat IPC: 1.25425 cumulative IPC: 1.27451 (Simulation time: 0 hr 13 min 46 sec) 
Heartbeat CPU 0 instructions: 340000000 cycles: 230699273 heartbeat IPC: 1.27565 cumulative IPC: 1.27456 (Simulation time: 0 hr 14 min 10 sec) 
Heartbeat CPU 0 instructions: 350000000 cycles: 238584349 heartbeat IPC: 1.26822 cumulative IPC: 1.2743 (Simulation time: 0 hr 14 min 34 sec) 
Heartbeat CPU 0 instructions: 360000003 cycles: 246422644 heartbeat IPC: 1.27579 cumulative IPC: 1.27436 (Simulation time: 0 hr 14 min 57 sec) 
Heartbeat CPU 0 instructions: 370000001 cycles: 254290009 heartbeat IPC: 1.27107 cumulative IPC: 1.27424 (Simulation time: 0 hr 15 min 21 sec) 
Heartbeat CPU 0 instructions: 380000002 cycles: 262118207 heartbeat IPC: 1.27743 cumulative IPC: 1.27435 (Simulation time: 0 hr 15 min 45 sec) 
Heartbeat CPU 0 instructions: 390000001 cycles: 269973619 heartbeat IPC: 1.27301 cumulative IPC: 1.2743 (Simulation time: 0 hr 16 min 9 sec) 
Heartbeat CPU 0 instructions: 400000002 cycles: 277794578 heartbeat IPC: 1.27862 cumulative IPC: 1.27445 (Simulation time: 0 hr 16 min 33 sec) 
Heartbeat CPU 0 instructions: 410000000 cycles: 285624252 heartbeat IPC: 1.27719 cumulative IPC: 1.27454 (Simulation time: 0 hr 16 min 56 sec) 
Heartbeat CPU 0 instructions: 420000000 cycles: 293485630 heartbeat IPC: 1.27204 cumulative IPC: 1.27446 (Simulation time: 0 hr 17 min 20 sec) 
Heartbeat CPU 0 instructions: 430000003 cycles: 301329351 heartbeat IPC: 1.27491 cumulative IPC: 1.27447 (Simulation time: 0 hr 17 min 44 sec) 
Heartbeat CPU 0 instructions: 440000000 cycles: 309190006 heartbeat IPC: 1.27216 cumulative IPC: 1.2744 (Simulation time: 0 hr 18 min 7 sec) 
Heartbeat CPU 0 instructions: 450000001 cycles: 317075091 heartbeat IPC: 1.26822 cumulative IPC: 1.27423 (Simulation time: 0 hr 18 min 29 sec) 
Heartbeat CPU 0 instructions: 460000002 cycles: 324975640 heartbeat IPC: 1.26573 cumulative IPC: 1.27399 (Simulation time: 0 hr 18 min 50 sec) 
Heartbeat CPU 0 instructions: 470000002 cycles: 332890547 heartbeat IPC: 1.26344 cumulative IPC: 1.2737 (Simulation time: 0 hr 19 min 12 sec) 
Heartbeat CPU 0 instructions: 480000000 cycles: 340808479 heartbeat IPC: 1.26296 cumulative IPC: 1.27342 (Simulation time: 0 hr 19 min 33 sec) 
Heartbeat CPU 0 instructions: 490000000 cycles: 348697333 heartbeat IPC: 1.26761 cumulative IPC: 1.27327 (Simulation time: 0 hr 19 min 54 sec) 
Heartbeat CPU 0 instructions: 500000003 cycles: 356643732 heartbeat IPC: 1.25843 cumulative IPC: 1.27289 (Simulation time: 0 hr 20 min 15 sec) 
Heartbeat CPU 0 instructions: 510000000 cycles: 364581124 heartbeat IPC: 1.25986 cumulative IPC: 1.27257 (Simulation time: 0 hr 20 min 36 sec) 
Heartbeat CPU 0 instructions: 520000000 cycles: 372581984 heartbeat IPC: 1.24987 cumulative IPC: 1.27202 (Simulation time: 0 hr 20 min 57 sec) 
Heartbeat CPU 0 instructions: 530000002 cycles: 380509490 heartbeat IPC: 1.26143 cumulative IPC: 1.27177 (Simulation time: 0 hr 21 min 19 sec) 
Heartbeat CPU 0 instructions: 540000003 cycles: 388415550 heartbeat IPC: 1.26485 cumulative IPC: 1.27161 (Simulation time: 0 hr 21 min 40 sec) 
Heartbeat CPU 0 instructions: 550000000 cycles: 396346031 heartbeat IPC: 1.26096 cumulative IPC: 1.27137 (Simulation time: 0 hr 22 min 0 sec) 
Heartbeat CPU 0 instructions: 560000001 cycles: 404280363 heartbeat IPC: 1.26035 cumulative IPC: 1.27113 (Simulation time: 0 hr 22 min 20 sec) 
Heartbeat CPU 0 instructions: 570000001 cycles: 412185888 heartbeat IPC: 1.26494 cumulative IPC: 1.271 (Simulation time: 0 hr 22 min 40 sec) 
Heartbeat CPU 0 instructions: 580000002 cycles: 420052855 heartbeat IPC: 1.27114 cumulative IPC: 1.271 (Simulation time: 0 hr 23 min 2 sec) 
Heartbeat CPU 0 instructions: 590000000 cycles: 428003230 heartbeat IPC: 1.2578 cumulative IPC: 1.27073 (Simulation time: 0 hr 23 min 25 sec) 
Heartbeat CPU 0 instructions: 600000003 cycles: 435879047 heartbeat IPC: 1.26971 cumulative IPC: 1.27071 (Simulation time: 0 hr 23 min 50 sec) 
Heartbeat CPU 0 instructions: 610000000 cycles: 443779124 heartbeat IPC: 1.26581 cumulative IPC: 1.27061 (Simulation time: 0 hr 24 min 13 sec) 
Heartbeat CPU 0 instructions: 620000000 cycles: 451664840 heartbeat IPC: 1.26812 cumulative IPC: 1.27057 (Simulation time: 0 hr 24 min 34 sec) 
Heartbeat CPU 0 instructions: 630000000 cycles: 459574737 heartbeat IPC: 1.26424 cumulative IPC: 1.27045 (Simulation time: 0 hr 24 min 57 sec) 
Heartbeat CPU 0 instructions: 640000003 cycles: 467461814 heartbeat IPC: 1.2679 cumulative IPC: 1.2704 (Simulation time: 0 hr 25 min 19 sec) 
Heartbeat CPU 0 instructions: 650000003 cycles: 475339455 heartbeat IPC: 1.26942 cumulative IPC: 1.27038 (Simulation time: 0 hr 25 min 43 sec) 
Heartbeat CPU 0 instructions: 660000000 cycles: 483233777 heartbeat IPC: 1.26673 cumulative IPC: 1.27032 (Simulation time: 0 hr 26 min 4 sec) 
Heartbeat CPU 0 instructions: 670000002 cycles: 491147427 heartbeat IPC: 1.26364 cumulative IPC: 1.2702 (Simulation time: 0 hr 26 min 27 sec) 
Heartbeat CPU 0 instructions: 680000000 cycles: 499056518 heartbeat IPC: 1.26437 cumulative IPC: 1.2701 (Simulation time: 0 hr 26 min 50 sec) 
Heartbeat CPU 0 instructions: 690000003 cycles: 506951609 heartbeat IPC: 1.26661 cumulative IPC: 1.27004 (Simulation time: 0 hr 27 min 12 sec) 
Heartbeat CPU 0 instructions: 700000003 cycles: 514867669 heartbeat IPC: 1.26325 cumulative IPC: 1.26992 (Simulation time: 0 hr 27 min 35 sec) 
Heartbeat CPU 0 instructions: 710000000 cycles: 522948089 heartbeat IPC: 1.23756 cumulative IPC: 1.26938 (Simulation time: 0 hr 27 min 59 sec) 
Heartbeat CPU 0 instructions: 720000000 cycles: 531005099 heartbeat IPC: 1.24116 cumulative IPC: 1.26891 (Simulation time: 0 hr 28 min 22 sec) 
Heartbeat CPU 0 instructions: 730000001 cycles: 538994561 heartbeat IPC: 1.25165 cumulative IPC: 1.26864 (Simulation time: 0 hr 28 min 45 sec) 
Heartbeat CPU 0 instructions: 740000002 cycles: 546895171 heartbeat IPC: 1.26573 cumulative IPC: 1.26859 (Simulation time: 0 hr 29 min 9 sec) 
Heartbeat CPU 0 instructions: 750000002 cycles: 554835669 heartbeat IPC: 1.25937 cumulative IPC: 1.26845 (Simulation time: 0 hr 29 min 32 sec) 
Heartbeat CPU 0 instructions: 760000001 cycles: 562727847 heartbeat IPC: 1.26708 cumulative IPC: 1.26843 (Simulation time: 0 hr 29 min 55 sec) 
Heartbeat CPU 0 instructions: 770000000 cycles: 570615774 heartbeat IPC: 1.26776 cumulative IPC: 1.26842 (Simulation time: 0 hr 30 min 17 sec) 
Heartbeat CPU 0 instructions: 780000001 cycles: 578495373 heartbeat IPC: 1.2691 cumulative IPC: 1.26843 (Simulation time: 0 hr 30 min 40 sec) 
Heartbeat CPU 0 instructions: 790000001 cycles: 586342567 heartbeat IPC: 1.27434 cumulative IPC: 1.26851 (Simulation time: 0 hr 31 min 4 sec) 
Heartbeat CPU 0 instructions: 800000000 cycles: 594217792 heartbeat IPC: 1.2698 cumulative IPC: 1.26853 (Simulation time: 0 hr 31 min 25 sec) 
Heartbeat CPU 0 instructions: 810000003 cycles: 602074260 heartbeat IPC: 1.27284 cumulative IPC: 1.26859 (Simulation time: 0 hr 31 min 49 sec) 
Heartbeat CPU 0 instructions: 820000001 cycles: 609889244 heartbeat IPC: 1.27959 cumulative IPC: 1.26874 (Simulation time: 0 hr 32 min 13 sec) 
Heartbeat CPU 0 instructions: 830000002 cycles: 617727257 heartbeat IPC: 1.27583 cumulative IPC: 1.26884 (Simulation time: 0 hr 32 min 35 sec) 
Heartbeat CPU 0 instructions: 840000000 cycles: 625564262 heartbeat IPC: 1.276 cumulative IPC: 1.26894 (Simulation time: 0 hr 32 min 59 sec) 
Heartbeat CPU 0 instructions: 850000001 cycles: 633402309 heartbeat IPC: 1.27583 cumulative IPC: 1.26903 (Simulation time: 0 hr 33 min 23 sec) 
Heartbeat CPU 0 instructions: 860000000 cycles: 641268763 heartbeat IPC: 1.27122 cumulative IPC: 1.26906 (Simulation time: 0 hr 33 min 47 sec) 
Heartbeat CPU 0 instructions: 870000003 cycles: 649092752 heartbeat IPC: 1.27812 cumulative IPC: 1.26917 (Simulation time: 0 hr 34 min 11 sec) 
Heartbeat CPU 0 instructions: 880000000 cycles: 656946215 heartbeat IPC: 1.27332 cumulative IPC: 1.26923 (Simulation time: 0 hr 34 min 35 sec) 
Heartbeat CPU 0 instructions: 890000002 cycles: 664764731 heartbeat IPC: 1.27902 cumulative IPC: 1.26935 (Simulation time: 0 hr 34 min 59 sec) 
Heartbeat CPU 0 instructions: 900000001 cycles: 672595847 heartbeat IPC: 1.27696 cumulative IPC: 1.26944 (Simulation time: 0 hr 35 min 23 sec) 
Heartbeat CPU 0 instructions: 910000001 cycles: 680426681 heartbeat IPC: 1.277 cumulative IPC: 1.26954 (Simulation time: 0 hr 35 min 47 sec) 
Heartbeat CPU 0 instructions: 920000003 cycles: 688272688 heartbeat IPC: 1.27453 cumulative IPC: 1.2696 (Simulation time: 0 hr 36 min 11 sec) 
Heartbeat CPU 0 instructions: 930000000 cycles: 696189186 heartbeat IPC: 1.26318 cumulative IPC: 1.26952 (Simulation time: 0 hr 36 min 35 sec) 
Heartbeat CPU 0 instructions: 940000001 cycles: 704138401 heartbeat IPC: 1.25799 cumulative IPC: 1.26938 (Simulation time: 0 hr 36 min 58 sec) 
Heartbeat CPU 0 instructions: 950000000 cycles: 712025170 heartbeat IPC: 1.26795 cumulative IPC: 1.26936 (Simulation time: 0 hr 37 min 22 sec) 
Heartbeat CPU 0 instructions: 960000002 cycles: 719993186 heartbeat IPC: 1.25502 cumulative IPC: 1.26919 (Simulation time: 0 hr 37 min 46 sec) 
Heartbeat CPU 0 instructions: 970000000 cycles: 727963530 heartbeat IPC: 1.25465 cumulative IPC: 1.26903 (Simulation time: 0 hr 38 min 10 sec) 
Heartbeat CPU 0 instructions: 980000002 cycles: 735919229 heartbeat IPC: 1.25696 cumulative IPC: 1.26889 (Simulation time: 0 hr 38 min 34 sec) 
Heartbeat CPU 0 instructions: 990000000 cycles: 743872155 heartbeat IPC: 1.2574 cumulative IPC: 1.26876 (Simulation time: 0 hr 38 min 58 sec) 
Heartbeat CPU 0 instructions: 1000000000 cycles: 751816931 heartbeat IPC: 1.25869 cumulative IPC: 1.26864 (Simulation time: 0 hr 39 min 22 sec) 
Heartbeat CPU 0 instructions: 1010000000 cycles: 759821259 heartbeat IPC: 1.24932 cumulative IPC: 1.26843 (Simulation time: 0 hr 39 min 45 sec) 
Heartbeat CPU 0 instructions: 1020000000 cycles: 767859327 heartbeat IPC: 1.24408 cumulative IPC: 1.26816 (Simulation time: 0 hr 40 min 9 sec) 
Heartbeat CPU 0 instructions: 1030000000 cycles: 775905683 heartbeat IPC: 1.2428 cumulative IPC: 1.26788 (Simulation time: 0 hr 40 min 32 sec) 
Heartbeat CPU 0 instructions: 1040000001 cycles: 783972887 heartbeat IPC: 1.23959 cumulative IPC: 1.26757 (Simulation time: 0 hr 40 min 57 sec) 
Heartbeat CPU 0 instructions: 1050000000 cycles: 792086391 heartbeat IPC: 1.23251 cumulative IPC: 1.26719 (Simulation time: 0 hr 41 min 21 sec) 
Heartbeat CPU 0 instructions: 1060000001 cycles: 800195404 heartbeat IPC: 1.2332 cumulative IPC: 1.26683 (Simulation time: 0 hr 41 min 45 sec) 
Heartbeat CPU 0 instructions: 1070000003 cycles: 808312963 heartbeat IPC: 1.2319 cumulative IPC: 1.26646 (Simulation time: 0 hr 42 min 10 sec) 
Heartbeat CPU 0 instructions: 1080000000 cycles: 816419883 heartbeat IPC: 1.23351 cumulative IPC: 1.26611 (Simulation time: 0 hr 42 min 34 sec) 
Heartbeat CPU 0 instructions: 1090000000 cycles: 824563472 heartbeat IPC: 1.22796 cumulative IPC: 1.26572 (Simulation time: 0 hr 42 min 57 sec) 
Heartbeat CPU 0 instructions: 1100000000 cycles: 832707444 heartbeat IPC: 1.2279 cumulative IPC: 1.26533 (Simulation time: 0 hr 43 min 21 sec) 
Finished CPU 0 instructions: 1000000000 cycles: 790309109 cumulative IPC: 1.26533 (Simulation time: 0 hr 43 min 21 sec) 

ChampSim completed all CPUs

Region of Interest Statistics

CPU 0 cumulative IPC: 1.26533 instructions: 1000000000 cycles: 790309109
L1D TOTAL     ACCESS:  317574312  HIT:  312529925  MISS:    5044387
L1D LOAD      ACCESS:  206970322  HIT:  201932845  MISS:    5037477
L1D RFO       ACCESS:  110603990  HIT:  110597080  MISS:       6910
L1D PREFETCH  ACCESS:          0  HIT:          0  MISS:          0
L1D WRITEBACK ACCESS:          0  HIT:          0  MISS:          0
L1D PREFETCH  REQUESTED:          0  ISSUED:          0  USEFUL:          0  USELESS:          0
L1D AVERAGE MISS LATENCY: 17.5863 cycles
L1I TOTAL     ACCESS:  157504311  HIT:  157504309  MISS:          2
L1I LOAD      ACCESS:  157504311  HIT:  157504309  MISS:          2
L1I RFO       ACCESS:          0  HIT:          0  MISS:          0
L1I PREFETCH  ACCESS:          0  HIT:          0  MISS:          0
L1I WRITEBACK ACCESS:          0  HIT:          0  MISS:          0
L1I PREFETCH  REQUESTED:          0  ISSUED:          0  USEFUL:          0  USELESS:          0
L1I AVERAGE MISS LATENCY: 235 cycles
L2C TOTAL     ACCESS:    6537762  HIT:    6322008  MISS:     215754
L2C LOAD      ACCESS:    5037477  HIT:    4822752  MISS:     214725
L2C RFO       ACCESS:       6910  HIT:       5893  MISS:       1017
L2C PREFETCH  ACCESS:          0  HIT:          0  MISS:          0
L2C WRITEBACK ACCESS:    1493375  HIT:    1493363  MISS:         12
L2C PREFETCH  REQUESTED:          0  ISSUED:          0  USEFUL:          0  USELESS:          0
L2C AVERAGE MISS LATENCY: 128.952 cycles
LLC TOTAL     ACCESS:     231803  HIT:      36815  MISS:     194988
LLC LOAD      ACCESS:     214725  HIT:      21819  MISS:     192906
LLC RFO       ACCESS:       1017  HIT:       1014  MISS:          3
LLC PREFETCH  ACCESS:          0  HIT:          0  MISS:          0
LLC WRITEBACK ACCESS:      16061  HIT:      13982  MISS:       2079
LLC PREFETCH  REQUESTED:          0  ISSUED:          0  USEFUL:          0  USELESS:          0
LLC AVERAGE MISS LATENCY: 98.3377 cycles
Major fault: 0 Minor fault: 8146
==============================
Perceptron RRIP Stats:
   Num Updates:          6559
   Num Primary Trains:   137
   Num Secondary Trains: 171
==============================
primary_perceptron #0: 3 3 -3 1 -1 -1 -1 1 5 1 3 -1 3 3 -1 -17 
secondary_perceptron #0: 1 3 -5 1 -1 -1 -3 1 7 3 3 -5 1 5 -3 3 -1 -3 3 -1 -23 


DRAM Statistics
 CHANNEL 0
 RQ ROW_BUFFER_HIT:     162301  ROW_BUFFER_MISS:      30608
 DBUS_CONGESTED:       1585
 WQ ROW_BUFFER_HIT:         17  ROW_BUFFER_MISS:       1718  FULL:          0

 AVG_CONGESTED_CYCLE: 4

CPU 0 Branch Prediction Accuracy: 97.1012% MPKI: 2.80613 Average ROB Occupancy at Mispredict: 175.223

Branch types
NOT_BRANCH: 903195904 90.3196%
BRANCH_DIRECT_JUMP: 8301504 0.83015%
BRANCH_INDIRECT: 281 2.81e-05%
BRANCH_CONDITIONAL: 66385742 6.63857%
BRANCH_DIRECT_CALL: 11058164 1.10582%
BRANCH_INDIRECT_CALL: 0 0%
BRANCH_RETURN: 11058165 1.10582%
BRANCH_OTHER: 0 0%

