
*** ChampSim Multicore Out-of-Order Simulator ***

Warmup Instructions: 100000000
Simulation Instructions: 1000000000
Number of CPUs: 1
LLC sets: 2048
LLC ways: 16
Off-chip DRAM Size: 4096 MB Channels: 1 Width: 64-bit Data Rate: 3200 MT/s

CPU 0 runs /scratch/user/kevin.weston/dpc3-traces/644.champsimtrace.xz
CPU 0 Bimodal branch predictor
Initialize RRPV
Initialize PRRIP state
Heartbeat CPU 0 instructions: 10000000 cycles: 4240550 heartbeat IPC: 2.35818 cumulative IPC: 2.35818 (Simulation time: 0 hr 0 min 27 sec) 
Heartbeat CPU 0 instructions: 20000001 cycles: 8479031 heartbeat IPC: 2.35934 cumulative IPC: 2.35876 (Simulation time: 0 hr 0 min 54 sec) 
Heartbeat CPU 0 instructions: 30000000 cycles: 12720039 heartbeat IPC: 2.35793 cumulative IPC: 2.35848 (Simulation time: 0 hr 1 min 21 sec) 
Heartbeat CPU 0 instructions: 40000002 cycles: 16961026 heartbeat IPC: 2.35794 cumulative IPC: 2.35835 (Simulation time: 0 hr 1 min 47 sec) 
Heartbeat CPU 0 instructions: 50000001 cycles: 21200067 heartbeat IPC: 2.35902 cumulative IPC: 2.35848 (Simulation time: 0 hr 2 min 14 sec) 
Heartbeat CPU 0 instructions: 60000000 cycles: 25441593 heartbeat IPC: 2.35764 cumulative IPC: 2.35834 (Simulation time: 0 hr 2 min 41 sec) 
Heartbeat CPU 0 instructions: 70000000 cycles: 29680429 heartbeat IPC: 2.35914 cumulative IPC: 2.35846 (Simulation time: 0 hr 3 min 8 sec) 
Heartbeat CPU 0 instructions: 80000002 cycles: 33919829 heartbeat IPC: 2.35882 cumulative IPC: 2.3585 (Simulation time: 0 hr 3 min 35 sec) 
Heartbeat CPU 0 instructions: 90000000 cycles: 38157200 heartbeat IPC: 2.35995 cumulative IPC: 2.35866 (Simulation time: 0 hr 4 min 2 sec) 
Heartbeat CPU 0 instructions: 100000001 cycles: 42398332 heartbeat IPC: 2.35786 cumulative IPC: 2.35858 (Simulation time: 0 hr 4 min 29 sec) 

Warmup complete CPU 0 instructions: 100000001 cycles: 42398332 (Simulation time: 0 hr 4 min 29 sec) 

Heartbeat CPU 0 instructions: 110000000 cycles: 50233805 heartbeat IPC: 1.27625 cumulative IPC: 1.27625 (Simulation time: 0 hr 4 min 50 sec) 
Heartbeat CPU 0 instructions: 120000002 cycles: 58055309 heartbeat IPC: 1.27853 cumulative IPC: 1.27739 (Simulation time: 0 hr 5 min 12 sec) 
Heartbeat CPU 0 instructions: 130000003 cycles: 65874870 heartbeat IPC: 1.27884 cumulative IPC: 1.27787 (Simulation time: 0 hr 5 min 33 sec) 
Heartbeat CPU 0 instructions: 140000001 cycles: 73686687 heartbeat IPC: 1.28011 cumulative IPC: 1.27843 (Simulation time: 0 hr 5 min 55 sec) 
Heartbeat CPU 0 instructions: 150000002 cycles: 81499028 heartbeat IPC: 1.28003 cumulative IPC: 1.27875 (Simulation time: 0 hr 6 min 17 sec) 
Heartbeat CPU 0 instructions: 160000000 cycles: 89340280 heartbeat IPC: 1.27531 cumulative IPC: 1.27817 (Simulation time: 0 hr 6 min 38 sec) 
Heartbeat CPU 0 instructions: 170000003 cycles: 97198558 heartbeat IPC: 1.27254 cumulative IPC: 1.27737 (Simulation time: 0 hr 7 min 0 sec) 
Heartbeat CPU 0 instructions: 180000002 cycles: 105042832 heartbeat IPC: 1.27482 cumulative IPC: 1.27705 (Simulation time: 0 hr 7 min 21 sec) 
Heartbeat CPU 0 instructions: 190000000 cycles: 112899063 heartbeat IPC: 1.27287 cumulative IPC: 1.27658 (Simulation time: 0 hr 7 min 43 sec) 
Heartbeat CPU 0 instructions: 200000003 cycles: 120726453 heartbeat IPC: 1.27757 cumulative IPC: 1.27668 (Simulation time: 0 hr 8 min 5 sec) 
Heartbeat CPU 0 instructions: 210000003 cycles: 128571691 heartbeat IPC: 1.27466 cumulative IPC: 1.2765 (Simulation time: 0 hr 8 min 26 sec) 
Heartbeat CPU 0 instructions: 220000000 cycles: 136449994 heartbeat IPC: 1.26931 cumulative IPC: 1.27589 (Simulation time: 0 hr 8 min 48 sec) 
Heartbeat CPU 0 instructions: 230000002 cycles: 144271899 heartbeat IPC: 1.27846 cumulative IPC: 1.27609 (Simulation time: 0 hr 9 min 10 sec) 
Heartbeat CPU 0 instructions: 240000002 cycles: 152129519 heartbeat IPC: 1.27265 cumulative IPC: 1.27585 (Simulation time: 0 hr 9 min 31 sec) 
Heartbeat CPU 0 instructions: 250000003 cycles: 159968640 heartbeat IPC: 1.27565 cumulative IPC: 1.27583 (Simulation time: 0 hr 9 min 53 sec) 
Heartbeat CPU 0 instructions: 260000002 cycles: 167805386 heartbeat IPC: 1.27604 cumulative IPC: 1.27585 (Simulation time: 0 hr 10 min 15 sec) 
Heartbeat CPU 0 instructions: 270000000 cycles: 175613833 heartbeat IPC: 1.28066 cumulative IPC: 1.27613 (Simulation time: 0 hr 10 min 37 sec) 
Heartbeat CPU 0 instructions: 280000001 cycles: 183425972 heartbeat IPC: 1.28006 cumulative IPC: 1.27635 (Simulation time: 0 hr 10 min 59 sec) 
Heartbeat CPU 0 instructions: 290000000 cycles: 191243932 heartbeat IPC: 1.27911 cumulative IPC: 1.27649 (Simulation time: 0 hr 11 min 20 sec) 
Heartbeat CPU 0 instructions: 300000000 cycles: 199068274 heartbeat IPC: 1.27806 cumulative IPC: 1.27657 (Simulation time: 0 hr 11 min 42 sec) 
Heartbeat CPU 0 instructions: 310000001 cycles: 206912425 heartbeat IPC: 1.27484 cumulative IPC: 1.27649 (Simulation time: 0 hr 12 min 4 sec) 
Heartbeat CPU 0 instructions: 320000000 cycles: 214742577 heartbeat IPC: 1.27711 cumulative IPC: 1.27651 (Simulation time: 0 hr 12 min 26 sec) 
Heartbeat CPU 0 instructions: 330000000 cycles: 222712010 heartbeat IPC: 1.25479 cumulative IPC: 1.27555 (Simulation time: 0 hr 12 min 47 sec) 
Heartbeat CPU 0 instructions: 340000000 cycles: 230560186 heartbeat IPC: 1.27418 cumulative IPC: 1.2755 (Simulation time: 0 hr 13 min 9 sec) 
Heartbeat CPU 0 instructions: 350000000 cycles: 238440942 heartbeat IPC: 1.26891 cumulative IPC: 1.27523 (Simulation time: 0 hr 13 min 31 sec) 
Heartbeat CPU 0 instructions: 360000003 cycles: 246269266 heartbeat IPC: 1.27741 cumulative IPC: 1.27532 (Simulation time: 0 hr 13 min 53 sec) 
Heartbeat CPU 0 instructions: 370000001 cycles: 254145604 heartbeat IPC: 1.26963 cumulative IPC: 1.2751 (Simulation time: 0 hr 14 min 14 sec) 
Heartbeat CPU 0 instructions: 380000002 cycles: 261975988 heartbeat IPC: 1.27708 cumulative IPC: 1.27518 (Simulation time: 0 hr 14 min 36 sec) 
Heartbeat CPU 0 instructions: 390000001 cycles: 269830920 heartbeat IPC: 1.27309 cumulative IPC: 1.2751 (Simulation time: 0 hr 14 min 58 sec) 
Heartbeat CPU 0 instructions: 400000002 cycles: 277650626 heartbeat IPC: 1.27882 cumulative IPC: 1.27523 (Simulation time: 0 hr 15 min 19 sec) 
Heartbeat CPU 0 instructions: 410000000 cycles: 285487526 heartbeat IPC: 1.27601 cumulative IPC: 1.27525 (Simulation time: 0 hr 15 min 41 sec) 
Heartbeat CPU 0 instructions: 420000000 cycles: 293364827 heartbeat IPC: 1.26947 cumulative IPC: 1.27507 (Simulation time: 0 hr 16 min 3 sec) 
Heartbeat CPU 0 instructions: 430000003 cycles: 301226280 heartbeat IPC: 1.27203 cumulative IPC: 1.27498 (Simulation time: 0 hr 16 min 25 sec) 
Heartbeat CPU 0 instructions: 440000000 cycles: 309102528 heartbeat IPC: 1.26964 cumulative IPC: 1.27482 (Simulation time: 0 hr 16 min 47 sec) 
Heartbeat CPU 0 instructions: 450000001 cycles: 317014899 heartbeat IPC: 1.26384 cumulative IPC: 1.2745 (Simulation time: 0 hr 17 min 9 sec) 
Heartbeat CPU 0 instructions: 460000002 cycles: 324936248 heartbeat IPC: 1.26241 cumulative IPC: 1.27417 (Simulation time: 0 hr 17 min 31 sec) 
Heartbeat CPU 0 instructions: 470000002 cycles: 332860346 heartbeat IPC: 1.26197 cumulative IPC: 1.27383 (Simulation time: 0 hr 17 min 53 sec) 
Heartbeat CPU 0 instructions: 480000000 cycles: 340783159 heartbeat IPC: 1.26218 cumulative IPC: 1.27352 (Simulation time: 0 hr 18 min 15 sec) 
Heartbeat CPU 0 instructions: 490000000 cycles: 348685494 heartbeat IPC: 1.26545 cumulative IPC: 1.27331 (Simulation time: 0 hr 18 min 37 sec) 
Heartbeat CPU 0 instructions: 500000003 cycles: 356629087 heartbeat IPC: 1.25888 cumulative IPC: 1.27295 (Simulation time: 0 hr 18 min 59 sec) 
Heartbeat CPU 0 instructions: 510000000 cycles: 364566264 heartbeat IPC: 1.25989 cumulative IPC: 1.27263 (Simulation time: 0 hr 19 min 20 sec) 
Heartbeat CPU 0 instructions: 520000000 cycles: 372559781 heartbeat IPC: 1.25101 cumulative IPC: 1.2721 (Simulation time: 0 hr 19 min 42 sec) 
Heartbeat CPU 0 instructions: 530000002 cycles: 380486063 heartbeat IPC: 1.26163 cumulative IPC: 1.27186 (Simulation time: 0 hr 20 min 4 sec) 
Heartbeat CPU 0 instructions: 540000003 cycles: 388384440 heartbeat IPC: 1.26608 cumulative IPC: 1.27173 (Simulation time: 0 hr 20 min 26 sec) 
Heartbeat CPU 0 instructions: 550000000 cycles: 396300422 heartbeat IPC: 1.26327 cumulative IPC: 1.27154 (Simulation time: 0 hr 20 min 48 sec) 
Heartbeat CPU 0 instructions: 560000001 cycles: 404228234 heartbeat IPC: 1.26138 cumulative IPC: 1.27132 (Simulation time: 0 hr 21 min 10 sec) 
Heartbeat CPU 0 instructions: 570000001 cycles: 412138397 heartbeat IPC: 1.2642 cumulative IPC: 1.27116 (Simulation time: 0 hr 21 min 32 sec) 
Heartbeat CPU 0 instructions: 580000002 cycles: 420012872 heartbeat IPC: 1.26993 cumulative IPC: 1.27114 (Simulation time: 0 hr 21 min 54 sec) 
Heartbeat CPU 0 instructions: 590000000 cycles: 427953705 heartbeat IPC: 1.25931 cumulative IPC: 1.27089 (Simulation time: 0 hr 22 min 16 sec) 
Heartbeat CPU 0 instructions: 600000003 cycles: 435828907 heartbeat IPC: 1.26981 cumulative IPC: 1.27087 (Simulation time: 0 hr 22 min 38 sec) 
Heartbeat CPU 0 instructions: 610000000 cycles: 443719354 heartbeat IPC: 1.26735 cumulative IPC: 1.2708 (Simulation time: 0 hr 23 min 0 sec) 
Heartbeat CPU 0 instructions: 620000000 cycles: 451594949 heartbeat IPC: 1.26975 cumulative IPC: 1.27078 (Simulation time: 0 hr 23 min 22 sec) 
Heartbeat CPU 0 instructions: 630000000 cycles: 459500219 heartbeat IPC: 1.26498 cumulative IPC: 1.27067 (Simulation time: 0 hr 23 min 44 sec) 
Heartbeat CPU 0 instructions: 640000003 cycles: 467386154 heartbeat IPC: 1.26808 cumulative IPC: 1.27062 (Simulation time: 0 hr 24 min 6 sec) 
Heartbeat CPU 0 instructions: 650000003 cycles: 475265370 heartbeat IPC: 1.26916 cumulative IPC: 1.2706 (Simulation time: 0 hr 24 min 28 sec) 
Heartbeat CPU 0 instructions: 660000000 cycles: 483159731 heartbeat IPC: 1.26673 cumulative IPC: 1.27053 (Simulation time: 0 hr 24 min 50 sec) 
Heartbeat CPU 0 instructions: 670000002 cycles: 491071935 heartbeat IPC: 1.26387 cumulative IPC: 1.27041 (Simulation time: 0 hr 25 min 12 sec) 
Heartbeat CPU 0 instructions: 680000000 cycles: 498981513 heartbeat IPC: 1.26429 cumulative IPC: 1.27031 (Simulation time: 0 hr 25 min 34 sec) 
Heartbeat CPU 0 instructions: 690000003 cycles: 506873515 heartbeat IPC: 1.26711 cumulative IPC: 1.27025 (Simulation time: 0 hr 25 min 55 sec) 
Heartbeat CPU 0 instructions: 700000003 cycles: 514785722 heartbeat IPC: 1.26387 cumulative IPC: 1.27014 (Simulation time: 0 hr 26 min 17 sec) 
Heartbeat CPU 0 instructions: 710000000 cycles: 522844711 heartbeat IPC: 1.24085 cumulative IPC: 1.26965 (Simulation time: 0 hr 26 min 39 sec) 
Heartbeat CPU 0 instructions: 720000000 cycles: 530903469 heartbeat IPC: 1.24089 cumulative IPC: 1.26918 (Simulation time: 0 hr 27 min 1 sec) 
Heartbeat CPU 0 instructions: 730000001 cycles: 538889629 heartbeat IPC: 1.25217 cumulative IPC: 1.2689 (Simulation time: 0 hr 27 min 23 sec) 
Heartbeat CPU 0 instructions: 740000002 cycles: 546785780 heartbeat IPC: 1.26644 cumulative IPC: 1.26887 (Simulation time: 0 hr 27 min 45 sec) 
Heartbeat CPU 0 instructions: 750000002 cycles: 554716573 heartbeat IPC: 1.26091 cumulative IPC: 1.26874 (Simulation time: 0 hr 28 min 7 sec) 
Heartbeat CPU 0 instructions: 760000001 cycles: 562603346 heartbeat IPC: 1.26795 cumulative IPC: 1.26873 (Simulation time: 0 hr 28 min 29 sec) 
Heartbeat CPU 0 instructions: 770000000 cycles: 570480490 heartbeat IPC: 1.2695 cumulative IPC: 1.26874 (Simulation time: 0 hr 28 min 51 sec) 
Heartbeat CPU 0 instructions: 780000001 cycles: 578361377 heartbeat IPC: 1.26889 cumulative IPC: 1.26874 (Simulation time: 0 hr 29 min 13 sec) 
Heartbeat CPU 0 instructions: 790000001 cycles: 586212597 heartbeat IPC: 1.27369 cumulative IPC: 1.26882 (Simulation time: 0 hr 29 min 35 sec) 
Heartbeat CPU 0 instructions: 800000000 cycles: 594087273 heartbeat IPC: 1.26989 cumulative IPC: 1.26883 (Simulation time: 0 hr 29 min 57 sec) 
Heartbeat CPU 0 instructions: 810000003 cycles: 601945006 heartbeat IPC: 1.27263 cumulative IPC: 1.26888 (Simulation time: 0 hr 30 min 18 sec) 
Heartbeat CPU 0 instructions: 820000001 cycles: 609761344 heartbeat IPC: 1.27937 cumulative IPC: 1.26903 (Simulation time: 0 hr 30 min 40 sec) 
Heartbeat CPU 0 instructions: 830000002 cycles: 617588736 heartbeat IPC: 1.27756 cumulative IPC: 1.26915 (Simulation time: 0 hr 31 min 2 sec) 
Heartbeat CPU 0 instructions: 840000000 cycles: 625419078 heartbeat IPC: 1.27708 cumulative IPC: 1.26925 (Simulation time: 0 hr 31 min 24 sec) 
Heartbeat CPU 0 instructions: 850000001 cycles: 633249124 heartbeat IPC: 1.27713 cumulative IPC: 1.26936 (Simulation time: 0 hr 31 min 46 sec) 
Heartbeat CPU 0 instructions: 860000000 cycles: 641098426 heartbeat IPC: 1.274 cumulative IPC: 1.26942 (Simulation time: 0 hr 32 min 8 sec) 
Heartbeat CPU 0 instructions: 870000003 cycles: 648921646 heartbeat IPC: 1.27825 cumulative IPC: 1.26953 (Simulation time: 0 hr 32 min 30 sec) 
Heartbeat CPU 0 instructions: 880000000 cycles: 656771527 heartbeat IPC: 1.2739 cumulative IPC: 1.26959 (Simulation time: 0 hr 32 min 51 sec) 
Heartbeat CPU 0 instructions: 890000002 cycles: 664590581 heartbeat IPC: 1.27893 cumulative IPC: 1.2697 (Simulation time: 0 hr 33 min 13 sec) 
Heartbeat CPU 0 instructions: 900000001 cycles: 672419191 heartbeat IPC: 1.27737 cumulative IPC: 1.2698 (Simulation time: 0 hr 33 min 35 sec) 
Heartbeat CPU 0 instructions: 910000001 cycles: 680250770 heartbeat IPC: 1.27688 cumulative IPC: 1.26989 (Simulation time: 0 hr 33 min 58 sec) 
Heartbeat CPU 0 instructions: 920000003 cycles: 688094342 heartbeat IPC: 1.27493 cumulative IPC: 1.26995 (Simulation time: 0 hr 34 min 20 sec) 
Heartbeat CPU 0 instructions: 930000000 cycles: 695999050 heartbeat IPC: 1.26507 cumulative IPC: 1.26989 (Simulation time: 0 hr 34 min 41 sec) 
Heartbeat CPU 0 instructions: 940000001 cycles: 703936563 heartbeat IPC: 1.25984 cumulative IPC: 1.26977 (Simulation time: 0 hr 35 min 3 sec) 
Heartbeat CPU 0 instructions: 950000000 cycles: 711826694 heartbeat IPC: 1.26741 cumulative IPC: 1.26974 (Simulation time: 0 hr 35 min 25 sec) 
Heartbeat CPU 0 instructions: 960000002 cycles: 719795160 heartbeat IPC: 1.25495 cumulative IPC: 1.26957 (Simulation time: 0 hr 35 min 47 sec) 
Heartbeat CPU 0 instructions: 970000000 cycles: 727766822 heartbeat IPC: 1.25444 cumulative IPC: 1.26939 (Simulation time: 0 hr 36 min 9 sec) 
Heartbeat CPU 0 instructions: 980000002 cycles: 735719941 heartbeat IPC: 1.25737 cumulative IPC: 1.26925 (Simulation time: 0 hr 36 min 31 sec) 
Heartbeat CPU 0 instructions: 990000000 cycles: 743671456 heartbeat IPC: 1.25762 cumulative IPC: 1.26912 (Simulation time: 0 hr 36 min 52 sec) 
Heartbeat CPU 0 instructions: 1000000000 cycles: 751616132 heartbeat IPC: 1.2587 cumulative IPC: 1.269 (Simulation time: 0 hr 37 min 14 sec) 
Heartbeat CPU 0 instructions: 1010000000 cycles: 759620432 heartbeat IPC: 1.24933 cumulative IPC: 1.26878 (Simulation time: 0 hr 37 min 36 sec) 
Heartbeat CPU 0 instructions: 1020000000 cycles: 767662458 heartbeat IPC: 1.24347 cumulative IPC: 1.2685 (Simulation time: 0 hr 37 min 58 sec) 
Heartbeat CPU 0 instructions: 1030000000 cycles: 775707605 heartbeat IPC: 1.24299 cumulative IPC: 1.26822 (Simulation time: 0 hr 38 min 19 sec) 
Heartbeat CPU 0 instructions: 1040000001 cycles: 783776509 heartbeat IPC: 1.23933 cumulative IPC: 1.26791 (Simulation time: 0 hr 38 min 41 sec) 
Heartbeat CPU 0 instructions: 1050000000 cycles: 791890839 heartbeat IPC: 1.23239 cumulative IPC: 1.26752 (Simulation time: 0 hr 39 min 3 sec) 
Heartbeat CPU 0 instructions: 1060000001 cycles: 800002181 heartbeat IPC: 1.23284 cumulative IPC: 1.26715 (Simulation time: 0 hr 39 min 25 sec) 
Heartbeat CPU 0 instructions: 1070000003 cycles: 808118059 heartbeat IPC: 1.23215 cumulative IPC: 1.26678 (Simulation time: 0 hr 39 min 47 sec) 
Heartbeat CPU 0 instructions: 1080000000 cycles: 816226771 heartbeat IPC: 1.23324 cumulative IPC: 1.26643 (Simulation time: 0 hr 40 min 8 sec) 
Heartbeat CPU 0 instructions: 1090000000 cycles: 824374060 heartbeat IPC: 1.2274 cumulative IPC: 1.26602 (Simulation time: 0 hr 40 min 30 sec) 
Heartbeat CPU 0 instructions: 1100000000 cycles: 832519031 heartbeat IPC: 1.22775 cumulative IPC: 1.26563 (Simulation time: 0 hr 40 min 52 sec) 
Finished CPU 0 instructions: 1000000000 cycles: 790120706 cumulative IPC: 1.26563 (Simulation time: 0 hr 40 min 52 sec) 

ChampSim completed all CPUs

Region of Interest Statistics

CPU 0 cumulative IPC: 1.26563 instructions: 1000000000 cycles: 790120706
L1D TOTAL     ACCESS:  317572530  HIT:  312528145  MISS:    5044385
L1D LOAD      ACCESS:  206968481  HIT:  201931006  MISS:    5037475
L1D RFO       ACCESS:  110604049  HIT:  110597139  MISS:       6910
L1D PREFETCH  ACCESS:          0  HIT:          0  MISS:          0
L1D WRITEBACK ACCESS:          0  HIT:          0  MISS:          0
L1D PREFETCH  REQUESTED:          0  ISSUED:          0  USEFUL:          0  USELESS:          0
L1D AVERAGE MISS LATENCY: 17.5692 cycles
L1I TOTAL     ACCESS:  157504311  HIT:  157504309  MISS:          2
L1I LOAD      ACCESS:  157504311  HIT:  157504309  MISS:          2
L1I RFO       ACCESS:          0  HIT:          0  MISS:          0
L1I PREFETCH  ACCESS:          0  HIT:          0  MISS:          0
L1I WRITEBACK ACCESS:          0  HIT:          0  MISS:          0
L1I PREFETCH  REQUESTED:          0  ISSUED:          0  USEFUL:          0  USELESS:          0
L1I AVERAGE MISS LATENCY: 235 cycles
L2C TOTAL     ACCESS:    6537760  HIT:    6313281  MISS:     224479
L2C LOAD      ACCESS:    5037475  HIT:    4813951  MISS:     223524
L2C RFO       ACCESS:       6910  HIT:       5983  MISS:        927
L2C PREFETCH  ACCESS:          0  HIT:          0  MISS:          0
L2C WRITEBACK ACCESS:    1493375  HIT:    1493347  MISS:         28
L2C PREFETCH  REQUESTED:          0  ISSUED:          0  USEFUL:          0  USELESS:          0
L2C AVERAGE MISS LATENCY: 123.535 cycles
LLC TOTAL     ACCESS:     243322  HIT:      51223  MISS:     192099
LLC LOAD      ACCESS:     223523  HIT:      32539  MISS:     190984
LLC RFO       ACCESS:        927  HIT:        925  MISS:          2
LLC PREFETCH  ACCESS:          0  HIT:          0  MISS:          0
LLC WRITEBACK ACCESS:      18872  HIT:      17759  MISS:       1113
LLC PREFETCH  REQUESTED:          0  ISSUED:          0  USEFUL:          0  USELESS:          0
LLC AVERAGE MISS LATENCY: 97.5501 cycles
Major fault: 0 Minor fault: 8146
==============================
Perceptron RRIP Stats:
   Num Updates:          233534
   Num Primary Trains:   2531
   Num Secondary Trains: 2415
==============================
primary_perceptron #0: 5 -1 1 -1 3 1 5 -3 1 -7 -5 -3 -3 7 3 -29 
secondary_perceptron #0: 7 -3 5 -1 5 1 9 -1 3 -7 -1 -5 -1 7 1 -3 1 -1 -1 -1 -43 


DRAM Statistics
 CHANNEL 0
 RQ ROW_BUFFER_HIT:     163009  ROW_BUFFER_MISS:      27977
 DBUS_CONGESTED:       1391
 WQ ROW_BUFFER_HIT:          6  ROW_BUFFER_MISS:       1244  FULL:          0

 AVG_CONGESTED_CYCLE: 5

CPU 0 Branch Prediction Accuracy: 97.1012% MPKI: 2.80613 Average ROB Occupancy at Mispredict: 175.226

Branch types
NOT_BRANCH: 903195904 90.3196%
BRANCH_DIRECT_JUMP: 8301504 0.83015%
BRANCH_INDIRECT: 281 2.81e-05%
BRANCH_CONDITIONAL: 66385742 6.63857%
BRANCH_DIRECT_CALL: 11058164 1.10582%
BRANCH_INDIRECT_CALL: 0 0%
BRANCH_RETURN: 11058165 1.10582%
BRANCH_OTHER: 0 0%

