
*** ChampSim Multicore Out-of-Order Simulator ***

Warmup Instructions: 100000000
Simulation Instructions: 1000000000
Number of CPUs: 1
LLC sets: 2048
LLC ways: 16
Off-chip DRAM Size: 4096 MB Channels: 1 Width: 64-bit Data Rate: 3200 MT/s

CPU 0 runs /scratch/user/kevin.weston/dpc3-traces/644.champsimtrace.xz
CPU 0 Bimodal branch predictor
Initialize RRPV
Initialize PRRIP state
Heartbeat CPU 0 instructions: 10000000 cycles: 4240550 heartbeat IPC: 2.35818 cumulative IPC: 2.35818 (Simulation time: 0 hr 0 min 25 sec) 
Heartbeat CPU 0 instructions: 20000001 cycles: 8479031 heartbeat IPC: 2.35934 cumulative IPC: 2.35876 (Simulation time: 0 hr 0 min 50 sec) 
Heartbeat CPU 0 instructions: 30000000 cycles: 12720039 heartbeat IPC: 2.35793 cumulative IPC: 2.35848 (Simulation time: 0 hr 1 min 15 sec) 
Heartbeat CPU 0 instructions: 40000002 cycles: 16961026 heartbeat IPC: 2.35794 cumulative IPC: 2.35835 (Simulation time: 0 hr 1 min 40 sec) 
Heartbeat CPU 0 instructions: 50000001 cycles: 21200067 heartbeat IPC: 2.35902 cumulative IPC: 2.35848 (Simulation time: 0 hr 2 min 5 sec) 
Heartbeat CPU 0 instructions: 60000000 cycles: 25441593 heartbeat IPC: 2.35764 cumulative IPC: 2.35834 (Simulation time: 0 hr 2 min 30 sec) 
Heartbeat CPU 0 instructions: 70000000 cycles: 29680429 heartbeat IPC: 2.35914 cumulative IPC: 2.35846 (Simulation time: 0 hr 2 min 54 sec) 
Heartbeat CPU 0 instructions: 80000002 cycles: 33919829 heartbeat IPC: 2.35882 cumulative IPC: 2.3585 (Simulation time: 0 hr 3 min 19 sec) 
Heartbeat CPU 0 instructions: 90000000 cycles: 38157200 heartbeat IPC: 2.35995 cumulative IPC: 2.35866 (Simulation time: 0 hr 3 min 44 sec) 
Heartbeat CPU 0 instructions: 100000001 cycles: 42398332 heartbeat IPC: 2.35786 cumulative IPC: 2.35858 (Simulation time: 0 hr 4 min 9 sec) 

Warmup complete CPU 0 instructions: 100000001 cycles: 42398332 (Simulation time: 0 hr 4 min 9 sec) 

Heartbeat CPU 0 instructions: 110000000 cycles: 50233805 heartbeat IPC: 1.27625 cumulative IPC: 1.27625 (Simulation time: 0 hr 4 min 29 sec) 
Heartbeat CPU 0 instructions: 120000002 cycles: 58055309 heartbeat IPC: 1.27853 cumulative IPC: 1.27739 (Simulation time: 0 hr 4 min 49 sec) 
Heartbeat CPU 0 instructions: 130000003 cycles: 65874870 heartbeat IPC: 1.27884 cumulative IPC: 1.27787 (Simulation time: 0 hr 5 min 9 sec) 
Heartbeat CPU 0 instructions: 140000001 cycles: 73686687 heartbeat IPC: 1.28011 cumulative IPC: 1.27843 (Simulation time: 0 hr 5 min 29 sec) 
Heartbeat CPU 0 instructions: 150000002 cycles: 81499028 heartbeat IPC: 1.28003 cumulative IPC: 1.27875 (Simulation time: 0 hr 5 min 49 sec) 
Heartbeat CPU 0 instructions: 160000000 cycles: 89340280 heartbeat IPC: 1.27531 cumulative IPC: 1.27817 (Simulation time: 0 hr 6 min 9 sec) 
Heartbeat CPU 0 instructions: 170000003 cycles: 97198558 heartbeat IPC: 1.27254 cumulative IPC: 1.27737 (Simulation time: 0 hr 6 min 29 sec) 
Heartbeat CPU 0 instructions: 180000002 cycles: 105042832 heartbeat IPC: 1.27482 cumulative IPC: 1.27705 (Simulation time: 0 hr 6 min 49 sec) 
Heartbeat CPU 0 instructions: 190000000 cycles: 112899063 heartbeat IPC: 1.27287 cumulative IPC: 1.27658 (Simulation time: 0 hr 7 min 9 sec) 
Heartbeat CPU 0 instructions: 200000003 cycles: 120727770 heartbeat IPC: 1.27735 cumulative IPC: 1.27666 (Simulation time: 0 hr 7 min 29 sec) 
Heartbeat CPU 0 instructions: 210000003 cycles: 128573008 heartbeat IPC: 1.27466 cumulative IPC: 1.27648 (Simulation time: 0 hr 7 min 49 sec) 
Heartbeat CPU 0 instructions: 220000000 cycles: 136451046 heartbeat IPC: 1.26935 cumulative IPC: 1.27588 (Simulation time: 0 hr 8 min 9 sec) 
Heartbeat CPU 0 instructions: 230000002 cycles: 144272990 heartbeat IPC: 1.27845 cumulative IPC: 1.27608 (Simulation time: 0 hr 8 min 29 sec) 
Heartbeat CPU 0 instructions: 240000002 cycles: 152131829 heartbeat IPC: 1.27245 cumulative IPC: 1.27582 (Simulation time: 0 hr 8 min 49 sec) 
Heartbeat CPU 0 instructions: 250000003 cycles: 159972233 heartbeat IPC: 1.27544 cumulative IPC: 1.27579 (Simulation time: 0 hr 9 min 9 sec) 
Heartbeat CPU 0 instructions: 260000002 cycles: 167809062 heartbeat IPC: 1.27603 cumulative IPC: 1.27581 (Simulation time: 0 hr 9 min 29 sec) 
Heartbeat CPU 0 instructions: 270000000 cycles: 175617309 heartbeat IPC: 1.2807 cumulative IPC: 1.27609 (Simulation time: 0 hr 9 min 49 sec) 
Heartbeat CPU 0 instructions: 280000001 cycles: 183429248 heartbeat IPC: 1.28009 cumulative IPC: 1.27632 (Simulation time: 0 hr 10 min 9 sec) 
Heartbeat CPU 0 instructions: 290000000 cycles: 191247308 heartbeat IPC: 1.27909 cumulative IPC: 1.27646 (Simulation time: 0 hr 10 min 29 sec) 
Heartbeat CPU 0 instructions: 300000000 cycles: 199071650 heartbeat IPC: 1.27806 cumulative IPC: 1.27654 (Simulation time: 0 hr 10 min 49 sec) 
Heartbeat CPU 0 instructions: 310000001 cycles: 206915801 heartbeat IPC: 1.27484 cumulative IPC: 1.27646 (Simulation time: 0 hr 11 min 9 sec) 
Heartbeat CPU 0 instructions: 320000000 cycles: 214745953 heartbeat IPC: 1.27711 cumulative IPC: 1.27649 (Simulation time: 0 hr 11 min 29 sec) 
Heartbeat CPU 0 instructions: 330000000 cycles: 222717895 heartbeat IPC: 1.2544 cumulative IPC: 1.27551 (Simulation time: 0 hr 11 min 49 sec) 
Heartbeat CPU 0 instructions: 340000000 cycles: 230566154 heartbeat IPC: 1.27417 cumulative IPC: 1.27546 (Simulation time: 0 hr 12 min 9 sec) 
Heartbeat CPU 0 instructions: 350000000 cycles: 238448976 heartbeat IPC: 1.26858 cumulative IPC: 1.27518 (Simulation time: 0 hr 12 min 29 sec) 
Heartbeat CPU 0 instructions: 360000003 cycles: 246278148 heartbeat IPC: 1.27727 cumulative IPC: 1.27526 (Simulation time: 0 hr 12 min 49 sec) 
Heartbeat CPU 0 instructions: 370000001 cycles: 254154532 heartbeat IPC: 1.26962 cumulative IPC: 1.27505 (Simulation time: 0 hr 13 min 9 sec) 
Heartbeat CPU 0 instructions: 380000002 cycles: 261984640 heartbeat IPC: 1.27712 cumulative IPC: 1.27513 (Simulation time: 0 hr 13 min 29 sec) 
Heartbeat CPU 0 instructions: 390000001 cycles: 269840735 heartbeat IPC: 1.2729 cumulative IPC: 1.27505 (Simulation time: 0 hr 13 min 49 sec) 
Heartbeat CPU 0 instructions: 400000002 cycles: 277661041 heartbeat IPC: 1.27872 cumulative IPC: 1.27517 (Simulation time: 0 hr 14 min 9 sec) 
Heartbeat CPU 0 instructions: 410000000 cycles: 285497202 heartbeat IPC: 1.27613 cumulative IPC: 1.2752 (Simulation time: 0 hr 14 min 29 sec) 
Heartbeat CPU 0 instructions: 420000000 cycles: 293375617 heartbeat IPC: 1.26929 cumulative IPC: 1.27502 (Simulation time: 0 hr 14 min 49 sec) 
Heartbeat CPU 0 instructions: 430000003 cycles: 301238358 heartbeat IPC: 1.27182 cumulative IPC: 1.27492 (Simulation time: 0 hr 15 min 9 sec) 
Heartbeat CPU 0 instructions: 440000000 cycles: 309115921 heartbeat IPC: 1.26943 cumulative IPC: 1.27476 (Simulation time: 0 hr 15 min 30 sec) 
Heartbeat CPU 0 instructions: 450000001 cycles: 317029630 heartbeat IPC: 1.26363 cumulative IPC: 1.27444 (Simulation time: 0 hr 15 min 50 sec) 
Heartbeat CPU 0 instructions: 460000002 cycles: 324951612 heartbeat IPC: 1.26231 cumulative IPC: 1.2741 (Simulation time: 0 hr 16 min 10 sec) 
Heartbeat CPU 0 instructions: 470000002 cycles: 332876171 heartbeat IPC: 1.2619 cumulative IPC: 1.27376 (Simulation time: 0 hr 16 min 30 sec) 
Heartbeat CPU 0 instructions: 480000000 cycles: 340799802 heartbeat IPC: 1.26205 cumulative IPC: 1.27345 (Simulation time: 0 hr 16 min 50 sec) 
Heartbeat CPU 0 instructions: 490000000 cycles: 348702557 heartbeat IPC: 1.26538 cumulative IPC: 1.27324 (Simulation time: 0 hr 17 min 10 sec) 
Heartbeat CPU 0 instructions: 500000003 cycles: 356647842 heartbeat IPC: 1.25861 cumulative IPC: 1.27287 (Simulation time: 0 hr 17 min 31 sec) 
Heartbeat CPU 0 instructions: 510000000 cycles: 364586573 heartbeat IPC: 1.25965 cumulative IPC: 1.27255 (Simulation time: 0 hr 17 min 51 sec) 
Heartbeat CPU 0 instructions: 520000000 cycles: 372580316 heartbeat IPC: 1.25098 cumulative IPC: 1.27203 (Simulation time: 0 hr 18 min 11 sec) 
Heartbeat CPU 0 instructions: 530000002 cycles: 380507081 heartbeat IPC: 1.26155 cumulative IPC: 1.27178 (Simulation time: 0 hr 18 min 31 sec) 
Heartbeat CPU 0 instructions: 540000003 cycles: 388405259 heartbeat IPC: 1.26611 cumulative IPC: 1.27165 (Simulation time: 0 hr 18 min 51 sec) 
Heartbeat CPU 0 instructions: 550000000 cycles: 396322816 heartbeat IPC: 1.26302 cumulative IPC: 1.27146 (Simulation time: 0 hr 19 min 11 sec) 
Heartbeat CPU 0 instructions: 560000001 cycles: 404253409 heartbeat IPC: 1.26094 cumulative IPC: 1.27123 (Simulation time: 0 hr 19 min 32 sec) 
Heartbeat CPU 0 instructions: 570000001 cycles: 412165888 heartbeat IPC: 1.26383 cumulative IPC: 1.27107 (Simulation time: 0 hr 19 min 52 sec) 
Heartbeat CPU 0 instructions: 580000002 cycles: 420040908 heartbeat IPC: 1.26984 cumulative IPC: 1.27104 (Simulation time: 0 hr 20 min 12 sec) 
Heartbeat CPU 0 instructions: 590000000 cycles: 427982434 heartbeat IPC: 1.2592 cumulative IPC: 1.2708 (Simulation time: 0 hr 20 min 32 sec) 
Heartbeat CPU 0 instructions: 600000003 cycles: 435857867 heartbeat IPC: 1.26977 cumulative IPC: 1.27078 (Simulation time: 0 hr 20 min 52 sec) 
Heartbeat CPU 0 instructions: 610000000 cycles: 443748914 heartbeat IPC: 1.26726 cumulative IPC: 1.27071 (Simulation time: 0 hr 21 min 12 sec) 
Heartbeat CPU 0 instructions: 620000000 cycles: 451624209 heartbeat IPC: 1.26979 cumulative IPC: 1.27069 (Simulation time: 0 hr 21 min 32 sec) 
Heartbeat CPU 0 instructions: 630000000 cycles: 459530316 heartbeat IPC: 1.26485 cumulative IPC: 1.27058 (Simulation time: 0 hr 21 min 52 sec) 
Heartbeat CPU 0 instructions: 640000003 cycles: 467416140 heartbeat IPC: 1.2681 cumulative IPC: 1.27053 (Simulation time: 0 hr 22 min 13 sec) 
Heartbeat CPU 0 instructions: 650000003 cycles: 475298069 heartbeat IPC: 1.26872 cumulative IPC: 1.2705 (Simulation time: 0 hr 22 min 33 sec) 
Heartbeat CPU 0 instructions: 660000000 cycles: 483192430 heartbeat IPC: 1.26673 cumulative IPC: 1.27043 (Simulation time: 0 hr 22 min 53 sec) 
Heartbeat CPU 0 instructions: 670000002 cycles: 491105095 heartbeat IPC: 1.2638 cumulative IPC: 1.27032 (Simulation time: 0 hr 23 min 13 sec) 
Heartbeat CPU 0 instructions: 680000000 cycles: 499014080 heartbeat IPC: 1.26438 cumulative IPC: 1.27021 (Simulation time: 0 hr 23 min 33 sec) 
Heartbeat CPU 0 instructions: 690000003 cycles: 506906182 heartbeat IPC: 1.26709 cumulative IPC: 1.27016 (Simulation time: 0 hr 23 min 53 sec) 
Heartbeat CPU 0 instructions: 700000003 cycles: 514818288 heartbeat IPC: 1.26389 cumulative IPC: 1.27006 (Simulation time: 0 hr 24 min 13 sec) 
Heartbeat CPU 0 instructions: 710000000 cycles: 522878832 heartbeat IPC: 1.24061 cumulative IPC: 1.26956 (Simulation time: 0 hr 24 min 33 sec) 
Heartbeat CPU 0 instructions: 720000000 cycles: 530937007 heartbeat IPC: 1.24098 cumulative IPC: 1.26909 (Simulation time: 0 hr 24 min 54 sec) 
Heartbeat CPU 0 instructions: 730000001 cycles: 538925065 heartbeat IPC: 1.25187 cumulative IPC: 1.26881 (Simulation time: 0 hr 25 min 14 sec) 
Heartbeat CPU 0 instructions: 740000002 cycles: 546820936 heartbeat IPC: 1.26648 cumulative IPC: 1.26878 (Simulation time: 0 hr 25 min 34 sec) 
Heartbeat CPU 0 instructions: 750000002 cycles: 554750560 heartbeat IPC: 1.26109 cumulative IPC: 1.26866 (Simulation time: 0 hr 25 min 54 sec) 
Heartbeat CPU 0 instructions: 760000001 cycles: 562636482 heartbeat IPC: 1.26808 cumulative IPC: 1.26865 (Simulation time: 0 hr 26 min 14 sec) 
Heartbeat CPU 0 instructions: 770000000 cycles: 570513741 heartbeat IPC: 1.26948 cumulative IPC: 1.26866 (Simulation time: 0 hr 26 min 34 sec) 
Heartbeat CPU 0 instructions: 780000001 cycles: 578393560 heartbeat IPC: 1.26906 cumulative IPC: 1.26867 (Simulation time: 0 hr 26 min 54 sec) 
Heartbeat CPU 0 instructions: 790000001 cycles: 586244780 heartbeat IPC: 1.27369 cumulative IPC: 1.26874 (Simulation time: 0 hr 27 min 14 sec) 
Heartbeat CPU 0 instructions: 800000000 cycles: 594119456 heartbeat IPC: 1.26989 cumulative IPC: 1.26876 (Simulation time: 0 hr 27 min 34 sec) 
Heartbeat CPU 0 instructions: 810000003 cycles: 601976029 heartbeat IPC: 1.27282 cumulative IPC: 1.26881 (Simulation time: 0 hr 27 min 54 sec) 
Heartbeat CPU 0 instructions: 820000001 cycles: 609792290 heartbeat IPC: 1.27938 cumulative IPC: 1.26896 (Simulation time: 0 hr 28 min 14 sec) 
Heartbeat CPU 0 instructions: 830000002 cycles: 617621433 heartbeat IPC: 1.27728 cumulative IPC: 1.26907 (Simulation time: 0 hr 28 min 34 sec) 
Heartbeat CPU 0 instructions: 840000000 cycles: 625452734 heartbeat IPC: 1.27693 cumulative IPC: 1.26918 (Simulation time: 0 hr 28 min 54 sec) 
Heartbeat CPU 0 instructions: 850000001 cycles: 633283217 heartbeat IPC: 1.27706 cumulative IPC: 1.26928 (Simulation time: 0 hr 29 min 14 sec) 
Heartbeat CPU 0 instructions: 860000000 cycles: 641138046 heartbeat IPC: 1.2731 cumulative IPC: 1.26933 (Simulation time: 0 hr 29 min 34 sec) 
Heartbeat CPU 0 instructions: 870000003 cycles: 648962399 heartbeat IPC: 1.27806 cumulative IPC: 1.26945 (Simulation time: 0 hr 29 min 54 sec) 
Heartbeat CPU 0 instructions: 880000000 cycles: 656812418 heartbeat IPC: 1.27388 cumulative IPC: 1.2695 (Simulation time: 0 hr 30 min 14 sec) 
Heartbeat CPU 0 instructions: 890000002 cycles: 664631656 heartbeat IPC: 1.2789 cumulative IPC: 1.26962 (Simulation time: 0 hr 30 min 34 sec) 
Heartbeat CPU 0 instructions: 900000001 cycles: 672460266 heartbeat IPC: 1.27737 cumulative IPC: 1.26972 (Simulation time: 0 hr 30 min 54 sec) 
Heartbeat CPU 0 instructions: 910000001 cycles: 680291828 heartbeat IPC: 1.27688 cumulative IPC: 1.2698 (Simulation time: 0 hr 31 min 14 sec) 
Heartbeat CPU 0 instructions: 920000003 cycles: 688136100 heartbeat IPC: 1.27482 cumulative IPC: 1.26987 (Simulation time: 0 hr 31 min 34 sec) 
Heartbeat CPU 0 instructions: 930000000 cycles: 696041887 heartbeat IPC: 1.2649 cumulative IPC: 1.26981 (Simulation time: 0 hr 31 min 54 sec) 
Heartbeat CPU 0 instructions: 940000001 cycles: 703978658 heartbeat IPC: 1.25996 cumulative IPC: 1.26969 (Simulation time: 0 hr 32 min 15 sec) 
Heartbeat CPU 0 instructions: 950000000 cycles: 711868506 heartbeat IPC: 1.26745 cumulative IPC: 1.26966 (Simulation time: 0 hr 32 min 35 sec) 
Heartbeat CPU 0 instructions: 960000002 cycles: 719836872 heartbeat IPC: 1.25496 cumulative IPC: 1.26949 (Simulation time: 0 hr 32 min 55 sec) 
Heartbeat CPU 0 instructions: 970000000 cycles: 727811111 heartbeat IPC: 1.25404 cumulative IPC: 1.26931 (Simulation time: 0 hr 33 min 15 sec) 
Heartbeat CPU 0 instructions: 980000002 cycles: 735764030 heartbeat IPC: 1.2574 cumulative IPC: 1.26917 (Simulation time: 0 hr 33 min 35 sec) 
Heartbeat CPU 0 instructions: 990000000 cycles: 743715512 heartbeat IPC: 1.25763 cumulative IPC: 1.26904 (Simulation time: 0 hr 33 min 56 sec) 
Heartbeat CPU 0 instructions: 1000000000 cycles: 751659779 heartbeat IPC: 1.25877 cumulative IPC: 1.26893 (Simulation time: 0 hr 34 min 16 sec) 
Heartbeat CPU 0 instructions: 1010000000 cycles: 759664296 heartbeat IPC: 1.24929 cumulative IPC: 1.26871 (Simulation time: 0 hr 34 min 36 sec) 
Heartbeat CPU 0 instructions: 1020000000 cycles: 767702691 heartbeat IPC: 1.24403 cumulative IPC: 1.26843 (Simulation time: 0 hr 34 min 56 sec) 
Heartbeat CPU 0 instructions: 1030000000 cycles: 775747838 heartbeat IPC: 1.24299 cumulative IPC: 1.26815 (Simulation time: 0 hr 35 min 16 sec) 
Heartbeat CPU 0 instructions: 1040000001 cycles: 783816742 heartbeat IPC: 1.23933 cumulative IPC: 1.26784 (Simulation time: 0 hr 35 min 37 sec) 
Heartbeat CPU 0 instructions: 1050000000 cycles: 791930872 heartbeat IPC: 1.23242 cumulative IPC: 1.26746 (Simulation time: 0 hr 35 min 57 sec) 
Heartbeat CPU 0 instructions: 1060000001 cycles: 800043930 heartbeat IPC: 1.23258 cumulative IPC: 1.26708 (Simulation time: 0 hr 36 min 17 sec) 
Heartbeat CPU 0 instructions: 1070000003 cycles: 808161708 heartbeat IPC: 1.23186 cumulative IPC: 1.26671 (Simulation time: 0 hr 36 min 37 sec) 
Heartbeat CPU 0 instructions: 1080000000 cycles: 816270420 heartbeat IPC: 1.23324 cumulative IPC: 1.26636 (Simulation time: 0 hr 36 min 58 sec) 
Heartbeat CPU 0 instructions: 1090000000 cycles: 824417471 heartbeat IPC: 1.22744 cumulative IPC: 1.26595 (Simulation time: 0 hr 37 min 18 sec) 
Heartbeat CPU 0 instructions: 1100000000 cycles: 832561642 heartbeat IPC: 1.22787 cumulative IPC: 1.26556 (Simulation time: 0 hr 37 min 38 sec) 
Finished CPU 0 instructions: 1000000000 cycles: 790163317 cumulative IPC: 1.26556 (Simulation time: 0 hr 37 min 38 sec) 

ChampSim completed all CPUs

Region of Interest Statistics

CPU 0 cumulative IPC: 1.26556 instructions: 1000000000 cycles: 790163317
L1D TOTAL     ACCESS:  317572515  HIT:  312528130  MISS:    5044385
L1D LOAD      ACCESS:  206968466  HIT:  201930991  MISS:    5037475
L1D RFO       ACCESS:  110604049  HIT:  110597139  MISS:       6910
L1D PREFETCH  ACCESS:          0  HIT:          0  MISS:          0
L1D WRITEBACK ACCESS:          0  HIT:          0  MISS:          0
L1D PREFETCH  REQUESTED:          0  ISSUED:          0  USEFUL:          0  USELESS:          0
L1D AVERAGE MISS LATENCY: 17.5806 cycles
L1I TOTAL     ACCESS:  157504311  HIT:  157504309  MISS:          2
L1I LOAD      ACCESS:  157504311  HIT:  157504309  MISS:          2
L1I RFO       ACCESS:          0  HIT:          0  MISS:          0
L1I PREFETCH  ACCESS:          0  HIT:          0  MISS:          0
L1I WRITEBACK ACCESS:          0  HIT:          0  MISS:          0
L1I PREFETCH  REQUESTED:          0  ISSUED:          0  USEFUL:          0  USELESS:          0
L1I AVERAGE MISS LATENCY: 235 cycles
L2C TOTAL     ACCESS:    6537760  HIT:    6313281  MISS:     224479
L2C LOAD      ACCESS:    5037475  HIT:    4813951  MISS:     223524
L2C RFO       ACCESS:       6910  HIT:       5983  MISS:        927
L2C PREFETCH  ACCESS:          0  HIT:          0  MISS:          0
L2C WRITEBACK ACCESS:    1493375  HIT:    1493347  MISS:         28
L2C PREFETCH  REQUESTED:          0  ISSUED:          0  USEFUL:          0  USELESS:          0
L2C AVERAGE MISS LATENCY: 123.791 cycles
LLC TOTAL     ACCESS:     243322  HIT:      50927  MISS:     192395
LLC LOAD      ACCESS:     223523  HIT:      32301  MISS:     191222
LLC RFO       ACCESS:        927  HIT:        925  MISS:          2
LLC PREFETCH  ACCESS:          0  HIT:          0  MISS:          0
LLC WRITEBACK ACCESS:      18872  HIT:      17701  MISS:       1171
LLC PREFETCH  REQUESTED:          0  ISSUED:          0  USEFUL:          0  USELESS:          0
LLC AVERAGE MISS LATENCY: 97.6993 cycles
Major fault: 0 Minor fault: 8146
==============================
Perceptron RRIP Stats:
   Num Updates:          233534
   Num Primary Trains:   2673
   Num Secondary Trains: 2538
==============================
primary_perceptron #0: 5 1 5 1 3 -1 3 -5 5 -7 -1 -1 -5 3 5 -33 
secondary_perceptron #0: 10 4 6 2 6 0 8 -4 2 -8 0 -4 -4 4 4 -2 2 0 2 -2 -48 


DRAM Statistics
 CHANNEL 0
 RQ ROW_BUFFER_HIT:     162887  ROW_BUFFER_MISS:      28337
 DBUS_CONGESTED:       1414
 WQ ROW_BUFFER_HIT:          6  ROW_BUFFER_MISS:       1301  FULL:          0

 AVG_CONGESTED_CYCLE: 5

CPU 0 Branch Prediction Accuracy: 97.1012% MPKI: 2.80613 Average ROB Occupancy at Mispredict: 175.226

Branch types
NOT_BRANCH: 903195904 90.3196%
BRANCH_DIRECT_JUMP: 8301504 0.83015%
BRANCH_INDIRECT: 281 2.81e-05%
BRANCH_CONDITIONAL: 66385742 6.63857%
BRANCH_DIRECT_CALL: 11058164 1.10582%
BRANCH_INDIRECT_CALL: 0 0%
BRANCH_RETURN: 11058165 1.10582%
BRANCH_OTHER: 0 0%

