
*** ChampSim Multicore Out-of-Order Simulator ***

Warmup Instructions: 100000000
Simulation Instructions: 1000000000
Number of CPUs: 1
LLC sets: 2048
LLC ways: 16
Off-chip DRAM Size: 4096 MB Channels: 1 Width: 64-bit Data Rate: 3200 MT/s

CPU 0 runs /scratch/user/kevin.weston/dpc3-traces/644.champsimtrace.xz
CPU 0 Bimodal branch predictor
Initialize DRRIP state
Assign rand_sets[0]: 454  LLC: 2048
rand_sets[0]: 454
Assign rand_sets[1]: 1662  LLC: 2048
rand_sets[1]: 1662
Assign rand_sets[2]: 1921  LLC: 2048
rand_sets[2]: 1921
Assign rand_sets[3]: 1131  LLC: 2048
rand_sets[3]: 1131
Assign rand_sets[4]: 331  LLC: 2048
rand_sets[4]: 331
Assign rand_sets[5]: 1531  LLC: 2048
rand_sets[5]: 1531
Assign rand_sets[6]: 482  LLC: 2048
rand_sets[6]: 482
Assign rand_sets[7]: 1275  LLC: 2048
rand_sets[7]: 1275
Assign rand_sets[8]: 1876  LLC: 2048
rand_sets[8]: 1876
Assign rand_sets[9]: 2038  LLC: 2048
rand_sets[9]: 2038
Assign rand_sets[10]: 701  LLC: 2048
rand_sets[10]: 701
Assign rand_sets[11]: 479  LLC: 2048
rand_sets[11]: 479
Assign rand_sets[12]: 892  LLC: 2048
rand_sets[12]: 892
Assign rand_sets[13]: 1820  LLC: 2048
rand_sets[13]: 1820
Assign rand_sets[14]: 1505  LLC: 2048
rand_sets[14]: 1505
Assign rand_sets[15]: 1159  LLC: 2048
rand_sets[15]: 1159
Assign rand_sets[16]: 513  LLC: 2048
rand_sets[16]: 513
Assign rand_sets[17]: 703  LLC: 2048
rand_sets[17]: 703
Assign rand_sets[18]: 561  LLC: 2048
rand_sets[18]: 561
Assign rand_sets[19]: 990  LLC: 2048
rand_sets[19]: 990
Assign rand_sets[20]: 342  LLC: 2048
rand_sets[20]: 342
Assign rand_sets[21]: 882  LLC: 2048
rand_sets[21]: 882
Assign rand_sets[22]: 15  LLC: 2048
rand_sets[22]: 15
Assign rand_sets[23]: 71  LLC: 2048
rand_sets[23]: 71
Assign rand_sets[24]: 1127  LLC: 2048
rand_sets[24]: 1127
Assign rand_sets[25]: 1382  LLC: 2048
rand_sets[25]: 1382
Assign rand_sets[26]: 647  LLC: 2048
rand_sets[26]: 647
Assign rand_sets[27]: 857  LLC: 2048
rand_sets[27]: 857
Assign rand_sets[28]: 1450  LLC: 2048
rand_sets[28]: 1450
Assign rand_sets[29]: 1160  LLC: 2048
rand_sets[29]: 1160
Assign rand_sets[30]: 1852  LLC: 2048
rand_sets[30]: 1852
Assign rand_sets[31]: 1881  LLC: 2048
rand_sets[31]: 1881
Assign rand_sets[32]: 1770  LLC: 2048
rand_sets[32]: 1770
Assign rand_sets[33]: 1622  LLC: 2048
rand_sets[33]: 1622
Assign rand_sets[34]: 275  LLC: 2048
rand_sets[34]: 275
Assign rand_sets[35]: 635  LLC: 2048
rand_sets[35]: 635
Assign rand_sets[36]: 466  LLC: 2048
rand_sets[36]: 466
Assign rand_sets[37]: 1413  LLC: 2048
rand_sets[37]: 1413
Assign rand_sets[38]: 417  LLC: 2048
rand_sets[38]: 417
Assign rand_sets[39]: 472  LLC: 2048
rand_sets[39]: 472
Assign rand_sets[40]: 1340  LLC: 2048
rand_sets[40]: 1340
Assign rand_sets[41]: 852  LLC: 2048
rand_sets[41]: 852
Assign rand_sets[42]: 1365  LLC: 2048
rand_sets[42]: 1365
Assign rand_sets[43]: 47  LLC: 2048
rand_sets[43]: 47
Assign rand_sets[44]: 823  LLC: 2048
rand_sets[44]: 823
Assign rand_sets[45]: 686  LLC: 2048
rand_sets[45]: 686
Assign rand_sets[46]: 1637  LLC: 2048
rand_sets[46]: 1637
Assign rand_sets[47]: 1115  LLC: 2048
rand_sets[47]: 1115
Assign rand_sets[48]: 986  LLC: 2048
rand_sets[48]: 986
Assign rand_sets[49]: 258  LLC: 2048
rand_sets[49]: 258
Assign rand_sets[50]: 633  LLC: 2048
rand_sets[50]: 633
Assign rand_sets[51]: 920  LLC: 2048
rand_sets[51]: 920
Assign rand_sets[52]: 204  LLC: 2048
rand_sets[52]: 204
Assign rand_sets[53]: 227  LLC: 2048
rand_sets[53]: 227
Assign rand_sets[54]: 1818  LLC: 2048
rand_sets[54]: 1818
Assign rand_sets[55]: 886  LLC: 2048
rand_sets[55]: 886
Assign rand_sets[56]: 1422  LLC: 2048
rand_sets[56]: 1422
Assign rand_sets[57]: 607  LLC: 2048
rand_sets[57]: 607
Assign rand_sets[58]: 217  LLC: 2048
rand_sets[58]: 217
Assign rand_sets[59]: 1945  LLC: 2048
rand_sets[59]: 1945
Assign rand_sets[60]: 143  LLC: 2048
rand_sets[60]: 143
Assign rand_sets[61]: 1311  LLC: 2048
rand_sets[61]: 1311
Assign rand_sets[62]: 319  LLC: 2048
rand_sets[62]: 319
Assign rand_sets[63]: 1846  LLC: 2048
rand_sets[63]: 1846
Heartbeat CPU 0 instructions: 10000000 cycles: 4240548 heartbeat IPC: 2.35819 cumulative IPC: 2.35819 (Simulation time: 0 hr 0 min 25 sec) 
Heartbeat CPU 0 instructions: 20000001 cycles: 8479041 heartbeat IPC: 2.35933 cumulative IPC: 2.35876 (Simulation time: 0 hr 0 min 50 sec) 
Heartbeat CPU 0 instructions: 30000000 cycles: 12720050 heartbeat IPC: 2.35793 cumulative IPC: 2.35848 (Simulation time: 0 hr 1 min 15 sec) 
Heartbeat CPU 0 instructions: 40000002 cycles: 16961033 heartbeat IPC: 2.35794 cumulative IPC: 2.35835 (Simulation time: 0 hr 1 min 41 sec) 
Heartbeat CPU 0 instructions: 50000001 cycles: 21200071 heartbeat IPC: 2.35903 cumulative IPC: 2.35848 (Simulation time: 0 hr 2 min 6 sec) 
Heartbeat CPU 0 instructions: 60000000 cycles: 25441596 heartbeat IPC: 2.35764 cumulative IPC: 2.35834 (Simulation time: 0 hr 2 min 31 sec) 
Heartbeat CPU 0 instructions: 70000000 cycles: 29680423 heartbeat IPC: 2.35914 cumulative IPC: 2.35846 (Simulation time: 0 hr 2 min 57 sec) 
Heartbeat CPU 0 instructions: 80000002 cycles: 33919822 heartbeat IPC: 2.35883 cumulative IPC: 2.3585 (Simulation time: 0 hr 3 min 22 sec) 
Heartbeat CPU 0 instructions: 90000000 cycles: 38157197 heartbeat IPC: 2.35995 cumulative IPC: 2.35866 (Simulation time: 0 hr 3 min 48 sec) 
Heartbeat CPU 0 instructions: 100000001 cycles: 42398331 heartbeat IPC: 2.35786 cumulative IPC: 2.35858 (Simulation time: 0 hr 4 min 13 sec) 

Warmup complete CPU 0 instructions: 100000001 cycles: 42398331 (Simulation time: 0 hr 4 min 13 sec) 

Heartbeat CPU 0 instructions: 110000000 cycles: 50232225 heartbeat IPC: 1.2765 cumulative IPC: 1.2765 (Simulation time: 0 hr 4 min 33 sec) 
Heartbeat CPU 0 instructions: 120000002 cycles: 58053238 heartbeat IPC: 1.27861 cumulative IPC: 1.27755 (Simulation time: 0 hr 4 min 53 sec) 
Heartbeat CPU 0 instructions: 130000003 cycles: 65876972 heartbeat IPC: 1.27816 cumulative IPC: 1.27776 (Simulation time: 0 hr 5 min 13 sec) 
Heartbeat CPU 0 instructions: 140000001 cycles: 73687707 heartbeat IPC: 1.28029 cumulative IPC: 1.27839 (Simulation time: 0 hr 5 min 34 sec) 
Heartbeat CPU 0 instructions: 150000002 cycles: 81500024 heartbeat IPC: 1.28003 cumulative IPC: 1.27872 (Simulation time: 0 hr 5 min 54 sec) 
Heartbeat CPU 0 instructions: 160000000 cycles: 89341526 heartbeat IPC: 1.27527 cumulative IPC: 1.27814 (Simulation time: 0 hr 6 min 14 sec) 
Heartbeat CPU 0 instructions: 170000003 cycles: 97202292 heartbeat IPC: 1.27214 cumulative IPC: 1.27728 (Simulation time: 0 hr 6 min 34 sec) 
Heartbeat CPU 0 instructions: 180000002 cycles: 105051516 heartbeat IPC: 1.27401 cumulative IPC: 1.27687 (Simulation time: 0 hr 6 min 54 sec) 
Heartbeat CPU 0 instructions: 190000000 cycles: 112929736 heartbeat IPC: 1.26932 cumulative IPC: 1.27603 (Simulation time: 0 hr 7 min 14 sec) 
Heartbeat CPU 0 instructions: 200000003 cycles: 120773282 heartbeat IPC: 1.27493 cumulative IPC: 1.27592 (Simulation time: 0 hr 7 min 35 sec) 
Heartbeat CPU 0 instructions: 210000003 cycles: 128635233 heartbeat IPC: 1.27195 cumulative IPC: 1.27556 (Simulation time: 0 hr 7 min 55 sec) 
Heartbeat CPU 0 instructions: 220000000 cycles: 136537531 heartbeat IPC: 1.26545 cumulative IPC: 1.27471 (Simulation time: 0 hr 8 min 15 sec) 
Heartbeat CPU 0 instructions: 230000002 cycles: 144383189 heartbeat IPC: 1.27459 cumulative IPC: 1.2747 (Simulation time: 0 hr 8 min 35 sec) 
Heartbeat CPU 0 instructions: 240000002 cycles: 152293171 heartbeat IPC: 1.26423 cumulative IPC: 1.27395 (Simulation time: 0 hr 8 min 55 sec) 
Heartbeat CPU 0 instructions: 250000003 cycles: 160137562 heartbeat IPC: 1.2748 cumulative IPC: 1.274 (Simulation time: 0 hr 9 min 16 sec) 
Heartbeat CPU 0 instructions: 260000002 cycles: 167969525 heartbeat IPC: 1.27682 cumulative IPC: 1.27418 (Simulation time: 0 hr 9 min 36 sec) 
Heartbeat CPU 0 instructions: 270000000 cycles: 175780151 heartbeat IPC: 1.28031 cumulative IPC: 1.27454 (Simulation time: 0 hr 9 min 56 sec) 
Heartbeat CPU 0 instructions: 280000001 cycles: 183595027 heartbeat IPC: 1.27961 cumulative IPC: 1.27482 (Simulation time: 0 hr 10 min 16 sec) 
Heartbeat CPU 0 instructions: 290000000 cycles: 191415893 heartbeat IPC: 1.27863 cumulative IPC: 1.27502 (Simulation time: 0 hr 10 min 36 sec) 
Heartbeat CPU 0 instructions: 300000000 cycles: 199244636 heartbeat IPC: 1.27734 cumulative IPC: 1.27513 (Simulation time: 0 hr 10 min 56 sec) 
Heartbeat CPU 0 instructions: 310000001 cycles: 207099810 heartbeat IPC: 1.27305 cumulative IPC: 1.27503 (Simulation time: 0 hr 11 min 17 sec) 
Heartbeat CPU 0 instructions: 320000000 cycles: 214935444 heartbeat IPC: 1.27622 cumulative IPC: 1.27509 (Simulation time: 0 hr 11 min 37 sec) 
Heartbeat CPU 0 instructions: 330000000 cycles: 222924018 heartbeat IPC: 1.25179 cumulative IPC: 1.27406 (Simulation time: 0 hr 11 min 57 sec) 
Heartbeat CPU 0 instructions: 340000000 cycles: 230837244 heartbeat IPC: 1.26371 cumulative IPC: 1.27362 (Simulation time: 0 hr 12 min 17 sec) 
Heartbeat CPU 0 instructions: 350000000 cycles: 238831681 heartbeat IPC: 1.25087 cumulative IPC: 1.2727 (Simulation time: 0 hr 12 min 38 sec) 
Heartbeat CPU 0 instructions: 360000003 cycles: 246749719 heartbeat IPC: 1.26294 cumulative IPC: 1.27232 (Simulation time: 0 hr 12 min 58 sec) 
Heartbeat CPU 0 instructions: 370000001 cycles: 254653390 heartbeat IPC: 1.26523 cumulative IPC: 1.27205 (Simulation time: 0 hr 13 min 18 sec) 
Heartbeat CPU 0 instructions: 380000002 cycles: 262498587 heartbeat IPC: 1.27467 cumulative IPC: 1.27215 (Simulation time: 0 hr 13 min 38 sec) 
Heartbeat CPU 0 instructions: 390000001 cycles: 270375526 heartbeat IPC: 1.26953 cumulative IPC: 1.27206 (Simulation time: 0 hr 13 min 59 sec) 
Heartbeat CPU 0 instructions: 400000002 cycles: 278201378 heartbeat IPC: 1.27782 cumulative IPC: 1.27225 (Simulation time: 0 hr 14 min 19 sec) 
Heartbeat CPU 0 instructions: 410000000 cycles: 286036971 heartbeat IPC: 1.27623 cumulative IPC: 1.27238 (Simulation time: 0 hr 14 min 39 sec) 
Heartbeat CPU 0 instructions: 420000000 cycles: 293905753 heartbeat IPC: 1.27084 cumulative IPC: 1.27233 (Simulation time: 0 hr 15 min 0 sec) 
Heartbeat CPU 0 instructions: 430000003 cycles: 301757981 heartbeat IPC: 1.27352 cumulative IPC: 1.27236 (Simulation time: 0 hr 15 min 20 sec) 
Heartbeat CPU 0 instructions: 440000000 cycles: 309620434 heartbeat IPC: 1.27187 cumulative IPC: 1.27235 (Simulation time: 0 hr 15 min 40 sec) 
Heartbeat CPU 0 instructions: 450000001 cycles: 317500310 heartbeat IPC: 1.26906 cumulative IPC: 1.27226 (Simulation time: 0 hr 16 min 0 sec) 
Heartbeat CPU 0 instructions: 460000002 cycles: 325405046 heartbeat IPC: 1.26506 cumulative IPC: 1.27205 (Simulation time: 0 hr 16 min 21 sec) 
Heartbeat CPU 0 instructions: 470000002 cycles: 333316604 heartbeat IPC: 1.26397 cumulative IPC: 1.27183 (Simulation time: 0 hr 16 min 42 sec) 
Heartbeat CPU 0 instructions: 480000000 cycles: 341219830 heartbeat IPC: 1.26531 cumulative IPC: 1.27166 (Simulation time: 0 hr 17 min 2 sec) 
Heartbeat CPU 0 instructions: 490000000 cycles: 349110115 heartbeat IPC: 1.26738 cumulative IPC: 1.27155 (Simulation time: 0 hr 17 min 22 sec) 
Heartbeat CPU 0 instructions: 500000003 cycles: 357043645 heartbeat IPC: 1.26047 cumulative IPC: 1.27127 (Simulation time: 0 hr 17 min 43 sec) 
Heartbeat CPU 0 instructions: 510000000 cycles: 364979469 heartbeat IPC: 1.26011 cumulative IPC: 1.271 (Simulation time: 0 hr 18 min 3 sec) 
Heartbeat CPU 0 instructions: 520000000 cycles: 372968559 heartbeat IPC: 1.25171 cumulative IPC: 1.27053 (Simulation time: 0 hr 18 min 23 sec) 
Heartbeat CPU 0 instructions: 530000002 cycles: 380898703 heartbeat IPC: 1.26101 cumulative IPC: 1.27031 (Simulation time: 0 hr 18 min 44 sec) 
Heartbeat CPU 0 instructions: 540000003 cycles: 388803098 heartbeat IPC: 1.26512 cumulative IPC: 1.27019 (Simulation time: 0 hr 19 min 4 sec) 
Heartbeat CPU 0 instructions: 550000000 cycles: 396706395 heartbeat IPC: 1.26529 cumulative IPC: 1.27008 (Simulation time: 0 hr 19 min 25 sec) 
Heartbeat CPU 0 instructions: 560000001 cycles: 404620958 heartbeat IPC: 1.26349 cumulative IPC: 1.26994 (Simulation time: 0 hr 19 min 45 sec) 
Heartbeat CPU 0 instructions: 570000001 cycles: 412521230 heartbeat IPC: 1.26578 cumulative IPC: 1.26985 (Simulation time: 0 hr 20 min 5 sec) 
Heartbeat CPU 0 instructions: 580000002 cycles: 420382823 heartbeat IPC: 1.27201 cumulative IPC: 1.26989 (Simulation time: 0 hr 20 min 26 sec) 
Heartbeat CPU 0 instructions: 590000000 cycles: 428299621 heartbeat IPC: 1.26314 cumulative IPC: 1.26975 (Simulation time: 0 hr 20 min 46 sec) 
Heartbeat CPU 0 instructions: 600000003 cycles: 436170081 heartbeat IPC: 1.27057 cumulative IPC: 1.26977 (Simulation time: 0 hr 21 min 6 sec) 
Heartbeat CPU 0 instructions: 610000000 cycles: 444060260 heartbeat IPC: 1.2674 cumulative IPC: 1.26972 (Simulation time: 0 hr 21 min 27 sec) 
Heartbeat CPU 0 instructions: 620000000 cycles: 451938128 heartbeat IPC: 1.26938 cumulative IPC: 1.26972 (Simulation time: 0 hr 21 min 47 sec) 
Heartbeat CPU 0 instructions: 630000000 cycles: 459849699 heartbeat IPC: 1.26397 cumulative IPC: 1.26961 (Simulation time: 0 hr 22 min 7 sec) 
Heartbeat CPU 0 instructions: 640000003 cycles: 467747619 heartbeat IPC: 1.26616 cumulative IPC: 1.26954 (Simulation time: 0 hr 22 min 28 sec) 
Heartbeat CPU 0 instructions: 650000003 cycles: 475656417 heartbeat IPC: 1.26441 cumulative IPC: 1.26945 (Simulation time: 0 hr 22 min 48 sec) 
Heartbeat CPU 0 instructions: 660000000 cycles: 483558611 heartbeat IPC: 1.26547 cumulative IPC: 1.26938 (Simulation time: 0 hr 23 min 8 sec) 
Heartbeat CPU 0 instructions: 670000002 cycles: 491492650 heartbeat IPC: 1.26039 cumulative IPC: 1.26922 (Simulation time: 0 hr 23 min 29 sec) 
Heartbeat CPU 0 instructions: 680000000 cycles: 499438773 heartbeat IPC: 1.25848 cumulative IPC: 1.26903 (Simulation time: 0 hr 23 min 49 sec) 
Heartbeat CPU 0 instructions: 690000003 cycles: 507341456 heartbeat IPC: 1.26539 cumulative IPC: 1.26897 (Simulation time: 0 hr 24 min 9 sec) 
Heartbeat CPU 0 instructions: 700000003 cycles: 515260330 heartbeat IPC: 1.26281 cumulative IPC: 1.26887 (Simulation time: 0 hr 24 min 29 sec) 
Heartbeat CPU 0 instructions: 710000000 cycles: 523339982 heartbeat IPC: 1.23768 cumulative IPC: 1.26835 (Simulation time: 0 hr 24 min 50 sec) 
Heartbeat CPU 0 instructions: 720000000 cycles: 531400029 heartbeat IPC: 1.24069 cumulative IPC: 1.26789 (Simulation time: 0 hr 25 min 10 sec) 
Heartbeat CPU 0 instructions: 730000001 cycles: 539389845 heartbeat IPC: 1.25159 cumulative IPC: 1.26763 (Simulation time: 0 hr 25 min 31 sec) 
Heartbeat CPU 0 instructions: 740000002 cycles: 547286994 heartbeat IPC: 1.26628 cumulative IPC: 1.26761 (Simulation time: 0 hr 25 min 51 sec) 
Heartbeat CPU 0 instructions: 750000002 cycles: 555219483 heartbeat IPC: 1.26064 cumulative IPC: 1.2675 (Simulation time: 0 hr 26 min 11 sec) 
Heartbeat CPU 0 instructions: 760000001 cycles: 563112602 heartbeat IPC: 1.26693 cumulative IPC: 1.26749 (Simulation time: 0 hr 26 min 32 sec) 
Heartbeat CPU 0 instructions: 770000000 cycles: 571015094 heartbeat IPC: 1.26542 cumulative IPC: 1.26746 (Simulation time: 0 hr 26 min 54 sec) 
Heartbeat CPU 0 instructions: 780000001 cycles: 578902388 heartbeat IPC: 1.26786 cumulative IPC: 1.26746 (Simulation time: 0 hr 27 min 14 sec) 
Heartbeat CPU 0 instructions: 790000001 cycles: 586754072 heartbeat IPC: 1.27361 cumulative IPC: 1.26755 (Simulation time: 0 hr 27 min 35 sec) 
Heartbeat CPU 0 instructions: 800000000 cycles: 594630009 heartbeat IPC: 1.26969 cumulative IPC: 1.26758 (Simulation time: 0 hr 27 min 55 sec) 
Heartbeat CPU 0 instructions: 810000003 cycles: 602491282 heartbeat IPC: 1.27206 cumulative IPC: 1.26765 (Simulation time: 0 hr 28 min 16 sec) 
Heartbeat CPU 0 instructions: 820000001 cycles: 610309797 heartbeat IPC: 1.27902 cumulative IPC: 1.2678 (Simulation time: 0 hr 28 min 36 sec) 
Heartbeat CPU 0 instructions: 830000002 cycles: 618140886 heartbeat IPC: 1.27696 cumulative IPC: 1.26793 (Simulation time: 0 hr 28 min 57 sec) 
Heartbeat CPU 0 instructions: 840000000 cycles: 625968970 heartbeat IPC: 1.27745 cumulative IPC: 1.26806 (Simulation time: 0 hr 29 min 17 sec) 
Heartbeat CPU 0 instructions: 850000001 cycles: 633802417 heartbeat IPC: 1.27658 cumulative IPC: 1.26817 (Simulation time: 0 hr 29 min 38 sec) 
Heartbeat CPU 0 instructions: 860000000 cycles: 641656757 heartbeat IPC: 1.27318 cumulative IPC: 1.26823 (Simulation time: 0 hr 29 min 59 sec) 
Heartbeat CPU 0 instructions: 870000003 cycles: 649484663 heartbeat IPC: 1.27748 cumulative IPC: 1.26835 (Simulation time: 0 hr 30 min 19 sec) 
Heartbeat CPU 0 instructions: 880000000 cycles: 657334203 heartbeat IPC: 1.27396 cumulative IPC: 1.26842 (Simulation time: 0 hr 30 min 40 sec) 
Heartbeat CPU 0 instructions: 890000002 cycles: 665153861 heartbeat IPC: 1.27883 cumulative IPC: 1.26856 (Simulation time: 0 hr 31 min 0 sec) 
Heartbeat CPU 0 instructions: 900000001 cycles: 672986016 heartbeat IPC: 1.27679 cumulative IPC: 1.26866 (Simulation time: 0 hr 31 min 21 sec) 
Heartbeat CPU 0 instructions: 910000001 cycles: 680819972 heartbeat IPC: 1.27649 cumulative IPC: 1.26875 (Simulation time: 0 hr 31 min 42 sec) 
Heartbeat CPU 0 instructions: 920000003 cycles: 688666100 heartbeat IPC: 1.27451 cumulative IPC: 1.26882 (Simulation time: 0 hr 32 min 2 sec) 
Heartbeat CPU 0 instructions: 930000000 cycles: 696558784 heartbeat IPC: 1.267 cumulative IPC: 1.2688 (Simulation time: 0 hr 32 min 23 sec) 
Heartbeat CPU 0 instructions: 940000001 cycles: 704494264 heartbeat IPC: 1.26016 cumulative IPC: 1.2687 (Simulation time: 0 hr 32 min 43 sec) 
Heartbeat CPU 0 instructions: 950000000 cycles: 712385414 heartbeat IPC: 1.26724 cumulative IPC: 1.26868 (Simulation time: 0 hr 33 min 4 sec) 
Heartbeat CPU 0 instructions: 960000002 cycles: 720355681 heartbeat IPC: 1.25466 cumulative IPC: 1.26852 (Simulation time: 0 hr 33 min 25 sec) 
Heartbeat CPU 0 instructions: 970000000 cycles: 728327587 heartbeat IPC: 1.2544 cumulative IPC: 1.26835 (Simulation time: 0 hr 33 min 45 sec) 
Heartbeat CPU 0 instructions: 980000002 cycles: 736282985 heartbeat IPC: 1.25701 cumulative IPC: 1.26822 (Simulation time: 0 hr 34 min 6 sec) 
Heartbeat CPU 0 instructions: 990000000 cycles: 744235213 heartbeat IPC: 1.25751 cumulative IPC: 1.2681 (Simulation time: 0 hr 34 min 27 sec) 
Heartbeat CPU 0 instructions: 1000000000 cycles: 752181354 heartbeat IPC: 1.25847 cumulative IPC: 1.26799 (Simulation time: 0 hr 34 min 48 sec) 
Heartbeat CPU 0 instructions: 1010000000 cycles: 760188385 heartbeat IPC: 1.2489 cumulative IPC: 1.26778 (Simulation time: 0 hr 35 min 8 sec) 
Heartbeat CPU 0 instructions: 1020000000 cycles: 768229042 heartbeat IPC: 1.24368 cumulative IPC: 1.26751 (Simulation time: 0 hr 35 min 29 sec) 
Heartbeat CPU 0 instructions: 1030000000 cycles: 776277230 heartbeat IPC: 1.24252 cumulative IPC: 1.26724 (Simulation time: 0 hr 35 min 50 sec) 
Heartbeat CPU 0 instructions: 1040000001 cycles: 784346365 heartbeat IPC: 1.23929 cumulative IPC: 1.26694 (Simulation time: 0 hr 36 min 10 sec) 
Heartbeat CPU 0 instructions: 1050000000 cycles: 792462331 heartbeat IPC: 1.23214 cumulative IPC: 1.26656 (Simulation time: 0 hr 36 min 31 sec) 
Heartbeat CPU 0 instructions: 1060000001 cycles: 800564165 heartbeat IPC: 1.23429 cumulative IPC: 1.26621 (Simulation time: 0 hr 36 min 52 sec) 
Heartbeat CPU 0 instructions: 1070000003 cycles: 808677669 heartbeat IPC: 1.23251 cumulative IPC: 1.26586 (Simulation time: 0 hr 37 min 13 sec) 
Heartbeat CPU 0 instructions: 1080000000 cycles: 816788040 heartbeat IPC: 1.23299 cumulative IPC: 1.26551 (Simulation time: 0 hr 37 min 34 sec) 
Heartbeat CPU 0 instructions: 1090000000 cycles: 824934239 heartbeat IPC: 1.22757 cumulative IPC: 1.26512 (Simulation time: 0 hr 37 min 54 sec) 
Heartbeat CPU 0 instructions: 1100000000 cycles: 833078501 heartbeat IPC: 1.22786 cumulative IPC: 1.26473 (Simulation time: 0 hr 38 min 15 sec) 
Finished CPU 0 instructions: 1000000000 cycles: 790680177 cumulative IPC: 1.26473 (Simulation time: 0 hr 38 min 15 sec) 

ChampSim completed all CPUs

Region of Interest Statistics

CPU 0 cumulative IPC: 1.26473 instructions: 1000000000 cycles: 790680177
L1D TOTAL     ACCESS:  317568200  HIT:  312523812  MISS:    5044388
L1D LOAD      ACCESS:  206964174  HIT:  201926696  MISS:    5037478
L1D RFO       ACCESS:  110604026  HIT:  110597116  MISS:       6910
L1D PREFETCH  ACCESS:          0  HIT:          0  MISS:          0
L1D WRITEBACK ACCESS:          0  HIT:          0  MISS:          0
L1D PREFETCH  REQUESTED:          0  ISSUED:          0  USEFUL:          0  USELESS:          0
L1D AVERAGE MISS LATENCY: 17.7406 cycles
L1I TOTAL     ACCESS:  157504309  HIT:  157504307  MISS:          2
L1I LOAD      ACCESS:  157504309  HIT:  157504307  MISS:          2
L1I RFO       ACCESS:          0  HIT:          0  MISS:          0
L1I PREFETCH  ACCESS:          0  HIT:          0  MISS:          0
L1I WRITEBACK ACCESS:          0  HIT:          0  MISS:          0
L1I PREFETCH  REQUESTED:          0  ISSUED:          0  USEFUL:          0  USELESS:          0
L1I AVERAGE MISS LATENCY: 235 cycles
L2C TOTAL     ACCESS:    6537763  HIT:    6294714  MISS:     243049
L2C LOAD      ACCESS:    5037478  HIT:    4795338  MISS:     242140
L2C RFO       ACCESS:       6910  HIT:       6014  MISS:        896
L2C PREFETCH  ACCESS:          0  HIT:          0  MISS:          0
L2C WRITEBACK ACCESS:    1493375  HIT:    1493362  MISS:         13
L2C PREFETCH  REQUESTED:          0  ISSUED:          0  USEFUL:          0  USELESS:          0
L2C AVERAGE MISS LATENCY: 117.656 cycles
LLC TOTAL     ACCESS:     268074  HIT:      76943  MISS:     191131
LLC LOAD      ACCESS:     242140  HIT:      51341  MISS:     190799
LLC RFO       ACCESS:        896  HIT:        847  MISS:         49
LLC PREFETCH  ACCESS:          0  HIT:          0  MISS:          0
LLC WRITEBACK ACCESS:      25038  HIT:      24755  MISS:        283
LLC PREFETCH  REQUESTED:          0  ISSUED:          0  USEFUL:          0  USELESS:          0
LLC AVERAGE MISS LATENCY: 98.6781 cycles
Major fault: 0 Minor fault: 8146

DRAM Statistics
 CHANNEL 0
 RQ ROW_BUFFER_HIT:     161522  ROW_BUFFER_MISS:      29326
 DBUS_CONGESTED:       1377
 WQ ROW_BUFFER_HIT:         19  ROW_BUFFER_MISS:       3743  FULL:          0

 AVG_CONGESTED_CYCLE: 4

CPU 0 Branch Prediction Accuracy: 97.1012% MPKI: 2.80613 Average ROB Occupancy at Mispredict: 175.231

Branch types
NOT_BRANCH: 903195904 90.3196%
BRANCH_DIRECT_JUMP: 8301504 0.83015%
BRANCH_INDIRECT: 281 2.81e-05%
BRANCH_CONDITIONAL: 66385742 6.63857%
BRANCH_DIRECT_CALL: 11058164 1.10582%
BRANCH_INDIRECT_CALL: 0 0%
BRANCH_RETURN: 11058165 1.10582%
BRANCH_OTHER: 0 0%

