
*** ChampSim Multicore Out-of-Order Simulator ***

Warmup Instructions: 100000000
Simulation Instructions: 1000000000
Number of CPUs: 1
LLC sets: 2048
LLC ways: 16
Off-chip DRAM Size: 4096 MB Channels: 1 Width: 64-bit Data Rate: 3200 MT/s

CPU 0 runs /scratch/user/kevin.weston/dpc3-traces/644.champsimtrace.xz
CPU 0 Bimodal branch predictor
Heartbeat CPU 0 instructions: 10000000 cycles: 4240550 heartbeat IPC: 2.35818 cumulative IPC: 2.35818 (Simulation time: 0 hr 0 min 26 sec) 
Heartbeat CPU 0 instructions: 20000001 cycles: 8479031 heartbeat IPC: 2.35934 cumulative IPC: 2.35876 (Simulation time: 0 hr 0 min 52 sec) 
Heartbeat CPU 0 instructions: 30000000 cycles: 12720039 heartbeat IPC: 2.35793 cumulative IPC: 2.35848 (Simulation time: 0 hr 1 min 19 sec) 
Heartbeat CPU 0 instructions: 40000002 cycles: 16961026 heartbeat IPC: 2.35794 cumulative IPC: 2.35835 (Simulation time: 0 hr 1 min 45 sec) 
Heartbeat CPU 0 instructions: 50000001 cycles: 21200067 heartbeat IPC: 2.35902 cumulative IPC: 2.35848 (Simulation time: 0 hr 2 min 11 sec) 
Heartbeat CPU 0 instructions: 60000000 cycles: 25441593 heartbeat IPC: 2.35764 cumulative IPC: 2.35834 (Simulation time: 0 hr 2 min 37 sec) 
Heartbeat CPU 0 instructions: 70000000 cycles: 29680429 heartbeat IPC: 2.35914 cumulative IPC: 2.35846 (Simulation time: 0 hr 3 min 3 sec) 
Heartbeat CPU 0 instructions: 80000002 cycles: 33919829 heartbeat IPC: 2.35882 cumulative IPC: 2.3585 (Simulation time: 0 hr 3 min 29 sec) 
Heartbeat CPU 0 instructions: 90000000 cycles: 38157200 heartbeat IPC: 2.35995 cumulative IPC: 2.35866 (Simulation time: 0 hr 3 min 55 sec) 
Heartbeat CPU 0 instructions: 100000001 cycles: 42398332 heartbeat IPC: 2.35786 cumulative IPC: 2.35858 (Simulation time: 0 hr 4 min 21 sec) 

Warmup complete CPU 0 instructions: 100000001 cycles: 42398332 (Simulation time: 0 hr 4 min 21 sec) 

Heartbeat CPU 0 instructions: 110000000 cycles: 50234221 heartbeat IPC: 1.27618 cumulative IPC: 1.27618 (Simulation time: 0 hr 4 min 42 sec) 
Heartbeat CPU 0 instructions: 120000002 cycles: 58055342 heartbeat IPC: 1.27859 cumulative IPC: 1.27738 (Simulation time: 0 hr 5 min 3 sec) 
Heartbeat CPU 0 instructions: 130000003 cycles: 65874703 heartbeat IPC: 1.27888 cumulative IPC: 1.27788 (Simulation time: 0 hr 5 min 24 sec) 
Heartbeat CPU 0 instructions: 140000001 cycles: 73686920 heartbeat IPC: 1.28005 cumulative IPC: 1.27842 (Simulation time: 0 hr 5 min 45 sec) 
Heartbeat CPU 0 instructions: 150000002 cycles: 81499461 heartbeat IPC: 1.27999 cumulative IPC: 1.27874 (Simulation time: 0 hr 6 min 6 sec) 
Heartbeat CPU 0 instructions: 160000000 cycles: 89340949 heartbeat IPC: 1.27527 cumulative IPC: 1.27816 (Simulation time: 0 hr 6 min 27 sec) 
Heartbeat CPU 0 instructions: 170000003 cycles: 97198281 heartbeat IPC: 1.2727 cumulative IPC: 1.27737 (Simulation time: 0 hr 6 min 48 sec) 
Heartbeat CPU 0 instructions: 180000002 cycles: 105040642 heartbeat IPC: 1.27513 cumulative IPC: 1.27709 (Simulation time: 0 hr 7 min 9 sec) 
Heartbeat CPU 0 instructions: 190000000 cycles: 112896928 heartbeat IPC: 1.27287 cumulative IPC: 1.27662 (Simulation time: 0 hr 7 min 30 sec) 
Heartbeat CPU 0 instructions: 200000003 cycles: 120718482 heartbeat IPC: 1.27852 cumulative IPC: 1.27681 (Simulation time: 0 hr 7 min 51 sec) 
Heartbeat CPU 0 instructions: 210000003 cycles: 128552764 heartbeat IPC: 1.27644 cumulative IPC: 1.27678 (Simulation time: 0 hr 8 min 12 sec) 
Heartbeat CPU 0 instructions: 220000000 cycles: 136433769 heartbeat IPC: 1.26887 cumulative IPC: 1.27611 (Simulation time: 0 hr 8 min 33 sec) 
Heartbeat CPU 0 instructions: 230000002 cycles: 144256617 heartbeat IPC: 1.27831 cumulative IPC: 1.27628 (Simulation time: 0 hr 8 min 54 sec) 
Heartbeat CPU 0 instructions: 240000002 cycles: 152106677 heartbeat IPC: 1.27388 cumulative IPC: 1.27611 (Simulation time: 0 hr 9 min 15 sec) 
Heartbeat CPU 0 instructions: 250000003 cycles: 159946198 heartbeat IPC: 1.27559 cumulative IPC: 1.27608 (Simulation time: 0 hr 9 min 36 sec) 
Heartbeat CPU 0 instructions: 260000002 cycles: 167784423 heartbeat IPC: 1.2758 cumulative IPC: 1.27606 (Simulation time: 0 hr 9 min 57 sec) 
Heartbeat CPU 0 instructions: 270000000 cycles: 175595717 heartbeat IPC: 1.2802 cumulative IPC: 1.2763 (Simulation time: 0 hr 10 min 18 sec) 
Heartbeat CPU 0 instructions: 280000001 cycles: 183411255 heartbeat IPC: 1.2795 cumulative IPC: 1.27648 (Simulation time: 0 hr 10 min 39 sec) 
Heartbeat CPU 0 instructions: 290000000 cycles: 191236643 heartbeat IPC: 1.27789 cumulative IPC: 1.27655 (Simulation time: 0 hr 11 min 0 sec) 
Heartbeat CPU 0 instructions: 300000000 cycles: 199063968 heartbeat IPC: 1.27758 cumulative IPC: 1.2766 (Simulation time: 0 hr 11 min 21 sec) 
Heartbeat CPU 0 instructions: 310000001 cycles: 206922230 heartbeat IPC: 1.27255 cumulative IPC: 1.27641 (Simulation time: 0 hr 11 min 42 sec) 
Heartbeat CPU 0 instructions: 320000000 cycles: 214757360 heartbeat IPC: 1.2763 cumulative IPC: 1.27641 (Simulation time: 0 hr 12 min 4 sec) 
Heartbeat CPU 0 instructions: 330000000 cycles: 222735926 heartbeat IPC: 1.25336 cumulative IPC: 1.27539 (Simulation time: 0 hr 12 min 25 sec) 
Heartbeat CPU 0 instructions: 340000000 cycles: 230583597 heartbeat IPC: 1.27426 cumulative IPC: 1.27534 (Simulation time: 0 hr 12 min 46 sec) 
Heartbeat CPU 0 instructions: 350000000 cycles: 238460896 heartbeat IPC: 1.26947 cumulative IPC: 1.2751 (Simulation time: 0 hr 13 min 7 sec) 
Heartbeat CPU 0 instructions: 360000003 cycles: 246288237 heartbeat IPC: 1.27757 cumulative IPC: 1.2752 (Simulation time: 0 hr 13 min 28 sec) 
Heartbeat CPU 0 instructions: 370000001 cycles: 254161862 heartbeat IPC: 1.27006 cumulative IPC: 1.27501 (Simulation time: 0 hr 13 min 49 sec) 
Heartbeat CPU 0 instructions: 380000002 cycles: 261991321 heartbeat IPC: 1.27723 cumulative IPC: 1.27509 (Simulation time: 0 hr 14 min 10 sec) 
Heartbeat CPU 0 instructions: 390000001 cycles: 269846544 heartbeat IPC: 1.27304 cumulative IPC: 1.27502 (Simulation time: 0 hr 14 min 31 sec) 
Heartbeat CPU 0 instructions: 400000002 cycles: 277665614 heartbeat IPC: 1.27892 cumulative IPC: 1.27515 (Simulation time: 0 hr 14 min 52 sec) 
Heartbeat CPU 0 instructions: 410000000 cycles: 285503611 heartbeat IPC: 1.27584 cumulative IPC: 1.27517 (Simulation time: 0 hr 15 min 14 sec) 
Heartbeat CPU 0 instructions: 420000000 cycles: 293381575 heartbeat IPC: 1.26936 cumulative IPC: 1.27499 (Simulation time: 0 hr 15 min 35 sec) 
Heartbeat CPU 0 instructions: 430000003 cycles: 301241853 heartbeat IPC: 1.27222 cumulative IPC: 1.2749 (Simulation time: 0 hr 15 min 56 sec) 
Heartbeat CPU 0 instructions: 440000000 cycles: 309116517 heartbeat IPC: 1.2699 cumulative IPC: 1.27475 (Simulation time: 0 hr 16 min 17 sec) 
Heartbeat CPU 0 instructions: 450000001 cycles: 317020109 heartbeat IPC: 1.26525 cumulative IPC: 1.27448 (Simulation time: 0 hr 16 min 38 sec) 
Heartbeat CPU 0 instructions: 460000002 cycles: 324944713 heartbeat IPC: 1.26189 cumulative IPC: 1.27413 (Simulation time: 0 hr 16 min 59 sec) 
Heartbeat CPU 0 instructions: 470000002 cycles: 332866821 heartbeat IPC: 1.26229 cumulative IPC: 1.2738 (Simulation time: 0 hr 17 min 21 sec) 
Heartbeat CPU 0 instructions: 480000000 cycles: 340793375 heartbeat IPC: 1.26158 cumulative IPC: 1.27348 (Simulation time: 0 hr 17 min 42 sec) 
Heartbeat CPU 0 instructions: 490000000 cycles: 348708247 heartbeat IPC: 1.26344 cumulative IPC: 1.27322 (Simulation time: 0 hr 18 min 3 sec) 
Heartbeat CPU 0 instructions: 500000003 cycles: 356653650 heartbeat IPC: 1.25859 cumulative IPC: 1.27285 (Simulation time: 0 hr 18 min 24 sec) 
Heartbeat CPU 0 instructions: 510000000 cycles: 364596048 heartbeat IPC: 1.25907 cumulative IPC: 1.27251 (Simulation time: 0 hr 18 min 45 sec) 
Heartbeat CPU 0 instructions: 520000000 cycles: 372590740 heartbeat IPC: 1.25083 cumulative IPC: 1.27199 (Simulation time: 0 hr 19 min 7 sec) 
Heartbeat CPU 0 instructions: 530000002 cycles: 380530093 heartbeat IPC: 1.25955 cumulative IPC: 1.27169 (Simulation time: 0 hr 19 min 28 sec) 
Heartbeat CPU 0 instructions: 540000003 cycles: 388443276 heartbeat IPC: 1.26371 cumulative IPC: 1.27151 (Simulation time: 0 hr 19 min 49 sec) 
Heartbeat CPU 0 instructions: 550000000 cycles: 396348112 heartbeat IPC: 1.26505 cumulative IPC: 1.27137 (Simulation time: 0 hr 20 min 10 sec) 
Heartbeat CPU 0 instructions: 560000001 cycles: 404265441 heartbeat IPC: 1.26305 cumulative IPC: 1.27118 (Simulation time: 0 hr 20 min 31 sec) 
Heartbeat CPU 0 instructions: 570000001 cycles: 412173831 heartbeat IPC: 1.26448 cumulative IPC: 1.27104 (Simulation time: 0 hr 20 min 53 sec) 
Heartbeat CPU 0 instructions: 580000002 cycles: 420059675 heartbeat IPC: 1.2681 cumulative IPC: 1.27098 (Simulation time: 0 hr 21 min 14 sec) 
Heartbeat CPU 0 instructions: 590000000 cycles: 427986155 heartbeat IPC: 1.26159 cumulative IPC: 1.27079 (Simulation time: 0 hr 21 min 35 sec) 
Heartbeat CPU 0 instructions: 600000003 cycles: 435867506 heartbeat IPC: 1.26882 cumulative IPC: 1.27075 (Simulation time: 0 hr 21 min 56 sec) 
Heartbeat CPU 0 instructions: 610000000 cycles: 443761321 heartbeat IPC: 1.26681 cumulative IPC: 1.27067 (Simulation time: 0 hr 22 min 16 sec) 
Heartbeat CPU 0 instructions: 620000000 cycles: 451642985 heartbeat IPC: 1.26877 cumulative IPC: 1.27063 (Simulation time: 0 hr 22 min 37 sec) 
Heartbeat CPU 0 instructions: 630000000 cycles: 459563011 heartbeat IPC: 1.26262 cumulative IPC: 1.27048 (Simulation time: 0 hr 22 min 58 sec) 
Heartbeat CPU 0 instructions: 640000003 cycles: 467470878 heartbeat IPC: 1.26456 cumulative IPC: 1.27037 (Simulation time: 0 hr 23 min 18 sec) 
Heartbeat CPU 0 instructions: 650000003 cycles: 475404537 heartbeat IPC: 1.26045 cumulative IPC: 1.27019 (Simulation time: 0 hr 23 min 39 sec) 
Heartbeat CPU 0 instructions: 660000000 cycles: 483311081 heartbeat IPC: 1.26477 cumulative IPC: 1.27009 (Simulation time: 0 hr 24 min 0 sec) 
Heartbeat CPU 0 instructions: 670000002 cycles: 491257765 heartbeat IPC: 1.25839 cumulative IPC: 1.26989 (Simulation time: 0 hr 24 min 20 sec) 
Heartbeat CPU 0 instructions: 680000000 cycles: 499184989 heartbeat IPC: 1.26148 cumulative IPC: 1.26974 (Simulation time: 0 hr 24 min 41 sec) 
Heartbeat CPU 0 instructions: 690000003 cycles: 507079891 heartbeat IPC: 1.26664 cumulative IPC: 1.26969 (Simulation time: 0 hr 25 min 1 sec) 
Heartbeat CPU 0 instructions: 700000003 cycles: 514999805 heartbeat IPC: 1.26264 cumulative IPC: 1.26957 (Simulation time: 0 hr 25 min 22 sec) 
Heartbeat CPU 0 instructions: 710000000 cycles: 523104832 heartbeat IPC: 1.2338 cumulative IPC: 1.26897 (Simulation time: 0 hr 25 min 42 sec) 
Heartbeat CPU 0 instructions: 720000000 cycles: 531169554 heartbeat IPC: 1.23997 cumulative IPC: 1.26849 (Simulation time: 0 hr 26 min 3 sec) 
Heartbeat CPU 0 instructions: 730000001 cycles: 539161311 heartbeat IPC: 1.25129 cumulative IPC: 1.26821 (Simulation time: 0 hr 26 min 23 sec) 
Heartbeat CPU 0 instructions: 740000002 cycles: 547053997 heartbeat IPC: 1.267 cumulative IPC: 1.26819 (Simulation time: 0 hr 26 min 44 sec) 
Heartbeat CPU 0 instructions: 750000002 cycles: 554988783 heartbeat IPC: 1.26027 cumulative IPC: 1.26807 (Simulation time: 0 hr 27 min 4 sec) 
Heartbeat CPU 0 instructions: 760000001 cycles: 562880210 heartbeat IPC: 1.2672 cumulative IPC: 1.26806 (Simulation time: 0 hr 27 min 24 sec) 
Heartbeat CPU 0 instructions: 770000000 cycles: 570775771 heartbeat IPC: 1.26653 cumulative IPC: 1.26803 (Simulation time: 0 hr 27 min 45 sec) 
Heartbeat CPU 0 instructions: 780000001 cycles: 578658627 heartbeat IPC: 1.26858 cumulative IPC: 1.26804 (Simulation time: 0 hr 28 min 5 sec) 
Heartbeat CPU 0 instructions: 790000001 cycles: 586511947 heartbeat IPC: 1.27335 cumulative IPC: 1.26812 (Simulation time: 0 hr 28 min 25 sec) 
Heartbeat CPU 0 instructions: 800000000 cycles: 594390223 heartbeat IPC: 1.26931 cumulative IPC: 1.26813 (Simulation time: 0 hr 28 min 46 sec) 
Heartbeat CPU 0 instructions: 810000003 cycles: 602248713 heartbeat IPC: 1.27251 cumulative IPC: 1.2682 (Simulation time: 0 hr 29 min 6 sec) 
Heartbeat CPU 0 instructions: 820000001 cycles: 610065874 heartbeat IPC: 1.27924 cumulative IPC: 1.26835 (Simulation time: 0 hr 29 min 29 sec) 
Heartbeat CPU 0 instructions: 830000002 cycles: 617895938 heartbeat IPC: 1.27713 cumulative IPC: 1.26847 (Simulation time: 0 hr 29 min 50 sec) 
Heartbeat CPU 0 instructions: 840000000 cycles: 625726186 heartbeat IPC: 1.2771 cumulative IPC: 1.26858 (Simulation time: 0 hr 30 min 11 sec) 
Heartbeat CPU 0 instructions: 850000001 cycles: 633563189 heartbeat IPC: 1.276 cumulative IPC: 1.26868 (Simulation time: 0 hr 30 min 31 sec) 
Heartbeat CPU 0 instructions: 860000000 cycles: 641418016 heartbeat IPC: 1.2731 cumulative IPC: 1.26874 (Simulation time: 0 hr 30 min 52 sec) 
Heartbeat CPU 0 instructions: 870000003 cycles: 649245567 heartbeat IPC: 1.27754 cumulative IPC: 1.26885 (Simulation time: 0 hr 31 min 13 sec) 
Heartbeat CPU 0 instructions: 880000000 cycles: 657097312 heartbeat IPC: 1.2736 cumulative IPC: 1.26891 (Simulation time: 0 hr 31 min 33 sec) 
Heartbeat CPU 0 instructions: 890000002 cycles: 664923647 heartbeat IPC: 1.27774 cumulative IPC: 1.26902 (Simulation time: 0 hr 31 min 54 sec) 
Heartbeat CPU 0 instructions: 900000001 cycles: 672761778 heartbeat IPC: 1.27581 cumulative IPC: 1.26911 (Simulation time: 0 hr 32 min 15 sec) 
Heartbeat CPU 0 instructions: 910000001 cycles: 680605627 heartbeat IPC: 1.27488 cumulative IPC: 1.26918 (Simulation time: 0 hr 32 min 36 sec) 
Heartbeat CPU 0 instructions: 920000003 cycles: 688456427 heartbeat IPC: 1.27376 cumulative IPC: 1.26924 (Simulation time: 0 hr 32 min 56 sec) 
Heartbeat CPU 0 instructions: 930000000 cycles: 696346213 heartbeat IPC: 1.26746 cumulative IPC: 1.26921 (Simulation time: 0 hr 33 min 17 sec) 
Heartbeat CPU 0 instructions: 940000001 cycles: 704285807 heartbeat IPC: 1.25951 cumulative IPC: 1.2691 (Simulation time: 0 hr 33 min 38 sec) 
Heartbeat CPU 0 instructions: 950000000 cycles: 712179442 heartbeat IPC: 1.26684 cumulative IPC: 1.26907 (Simulation time: 0 hr 33 min 59 sec) 
Heartbeat CPU 0 instructions: 960000002 cycles: 720149089 heartbeat IPC: 1.25476 cumulative IPC: 1.2689 (Simulation time: 0 hr 34 min 20 sec) 
Heartbeat CPU 0 instructions: 970000000 cycles: 728121024 heartbeat IPC: 1.2544 cumulative IPC: 1.26873 (Simulation time: 0 hr 34 min 41 sec) 
Heartbeat CPU 0 instructions: 980000002 cycles: 736075636 heartbeat IPC: 1.25713 cumulative IPC: 1.2686 (Simulation time: 0 hr 35 min 1 sec) 
Heartbeat CPU 0 instructions: 990000000 cycles: 744027851 heartbeat IPC: 1.25751 cumulative IPC: 1.26848 (Simulation time: 0 hr 35 min 22 sec) 
Heartbeat CPU 0 instructions: 1000000000 cycles: 751972588 heartbeat IPC: 1.25869 cumulative IPC: 1.26837 (Simulation time: 0 hr 35 min 43 sec) 
Heartbeat CPU 0 instructions: 1010000000 cycles: 759979205 heartbeat IPC: 1.24897 cumulative IPC: 1.26815 (Simulation time: 0 hr 36 min 4 sec) 
Heartbeat CPU 0 instructions: 1020000000 cycles: 768019014 heartbeat IPC: 1.24381 cumulative IPC: 1.26788 (Simulation time: 0 hr 36 min 25 sec) 
Heartbeat CPU 0 instructions: 1030000000 cycles: 776067568 heartbeat IPC: 1.24246 cumulative IPC: 1.2676 (Simulation time: 0 hr 36 min 46 sec) 
Heartbeat CPU 0 instructions: 1040000001 cycles: 784138796 heartbeat IPC: 1.23897 cumulative IPC: 1.26729 (Simulation time: 0 hr 37 min 7 sec) 
Heartbeat CPU 0 instructions: 1050000000 cycles: 792256326 heartbeat IPC: 1.2319 cumulative IPC: 1.26691 (Simulation time: 0 hr 37 min 28 sec) 
Heartbeat CPU 0 instructions: 1060000001 cycles: 800359079 heartbeat IPC: 1.23415 cumulative IPC: 1.26656 (Simulation time: 0 hr 37 min 49 sec) 
Heartbeat CPU 0 instructions: 1070000003 cycles: 808472943 heartbeat IPC: 1.23246 cumulative IPC: 1.2662 (Simulation time: 0 hr 38 min 10 sec) 
Heartbeat CPU 0 instructions: 1080000000 cycles: 816586155 heartbeat IPC: 1.23256 cumulative IPC: 1.26584 (Simulation time: 0 hr 38 min 31 sec) 
Heartbeat CPU 0 instructions: 1090000000 cycles: 824738253 heartbeat IPC: 1.22668 cumulative IPC: 1.26543 (Simulation time: 0 hr 38 min 51 sec) 
Heartbeat CPU 0 instructions: 1100000000 cycles: 832887900 heartbeat IPC: 1.22705 cumulative IPC: 1.26504 (Simulation time: 0 hr 39 min 12 sec) 
Finished CPU 0 instructions: 1000000000 cycles: 790489575 cumulative IPC: 1.26504 (Simulation time: 0 hr 39 min 12 sec) 

ChampSim completed all CPUs

Region of Interest Statistics

CPU 0 cumulative IPC: 1.26504 instructions: 1000000000 cycles: 790489575
L1D TOTAL     ACCESS:  317572514  HIT:  312528129  MISS:    5044385
L1D LOAD      ACCESS:  206968465  HIT:  201930990  MISS:    5037475
L1D RFO       ACCESS:  110604049  HIT:  110597139  MISS:       6910
L1D PREFETCH  ACCESS:          0  HIT:          0  MISS:          0
L1D WRITEBACK ACCESS:          0  HIT:          0  MISS:          0
L1D PREFETCH  REQUESTED:          0  ISSUED:          0  USEFUL:          0  USELESS:          0
L1D AVERAGE MISS LATENCY: 17.6573 cycles
L1I TOTAL     ACCESS:  157504311  HIT:  157504309  MISS:          2
L1I LOAD      ACCESS:  157504311  HIT:  157504309  MISS:          2
L1I RFO       ACCESS:          0  HIT:          0  MISS:          0
L1I PREFETCH  ACCESS:          0  HIT:          0  MISS:          0
L1I WRITEBACK ACCESS:          0  HIT:          0  MISS:          0
L1I PREFETCH  REQUESTED:          0  ISSUED:          0  USEFUL:          0  USELESS:          0
L1I AVERAGE MISS LATENCY: 235 cycles
L2C TOTAL     ACCESS:    6537760  HIT:    6313281  MISS:     224479
L2C LOAD      ACCESS:    5037475  HIT:    4813951  MISS:     223524
L2C RFO       ACCESS:       6910  HIT:       5983  MISS:        927
L2C PREFETCH  ACCESS:          0  HIT:          0  MISS:          0
L2C WRITEBACK ACCESS:    1493375  HIT:    1493347  MISS:         28
L2C PREFETCH  REQUESTED:          0  ISSUED:          0  USEFUL:          0  USELESS:          0
L2C AVERAGE MISS LATENCY: 125.515 cycles
LLC TOTAL     ACCESS:     243322  HIT:      50764  MISS:     192558
LLC LOAD      ACCESS:     223523  HIT:      31728  MISS:     191795
LLC RFO       ACCESS:        927  HIT:        923  MISS:          4
LLC PREFETCH  ACCESS:          0  HIT:          0  MISS:          0
LLC WRITEBACK ACCESS:      18872  HIT:      18113  MISS:        759
LLC PREFETCH  REQUESTED:          0  ISSUED:          0  USEFUL:          0  USELESS:          0
LLC AVERAGE MISS LATENCY: 99.626 cycles
Major fault: 0 Minor fault: 8146

DRAM Statistics
 CHANNEL 0
 RQ ROW_BUFFER_HIT:     160155  ROW_BUFFER_MISS:      31644
 DBUS_CONGESTED:       1536
 WQ ROW_BUFFER_HIT:         28  ROW_BUFFER_MISS:       4469  FULL:          0

 AVG_CONGESTED_CYCLE: 5

CPU 0 Branch Prediction Accuracy: 97.1012% MPKI: 2.80613 Average ROB Occupancy at Mispredict: 175.226

Branch types
NOT_BRANCH: 903195904 90.3196%
BRANCH_DIRECT_JUMP: 8301504 0.83015%
BRANCH_INDIRECT: 281 2.81e-05%
BRANCH_CONDITIONAL: 66385742 6.63857%
BRANCH_DIRECT_CALL: 11058164 1.10582%
BRANCH_INDIRECT_CALL: 0 0%
BRANCH_RETURN: 11058165 1.10582%
BRANCH_OTHER: 0 0%

