
*** ChampSim Multicore Out-of-Order Simulator ***

Warmup Instructions: 100000000
Simulation Instructions: 1000000000
Number of CPUs: 1
LLC sets: 2048
LLC ways: 16
Off-chip DRAM Size: 4096 MB Channels: 1 Width: 64-bit Data Rate: 3200 MT/s

CPU 0 runs /scratch/user/kevin.weston/dpc3-traces/649.champsimtrace.xz
CPU 0 Bimodal branch predictor
Initialize RRPV
Initialize PRRIP state
Heartbeat CPU 0 instructions: 10000000 cycles: 4077794 heartbeat IPC: 2.45231 cumulative IPC: 2.45231 (Simulation time: 0 hr 0 min 25 sec) 
Heartbeat CPU 0 instructions: 20000000 cycles: 8155551 heartbeat IPC: 2.45233 cumulative IPC: 2.45232 (Simulation time: 0 hr 0 min 50 sec) 
Heartbeat CPU 0 instructions: 30000000 cycles: 12233332 heartbeat IPC: 2.45231 cumulative IPC: 2.45232 (Simulation time: 0 hr 1 min 14 sec) 
Heartbeat CPU 0 instructions: 40000003 cycles: 16311085 heartbeat IPC: 2.45233 cumulative IPC: 2.45232 (Simulation time: 0 hr 1 min 39 sec) 
Heartbeat CPU 0 instructions: 50000002 cycles: 20388793 heartbeat IPC: 2.45236 cumulative IPC: 2.45233 (Simulation time: 0 hr 2 min 4 sec) 
Heartbeat CPU 0 instructions: 60000003 cycles: 24466665 heartbeat IPC: 2.45226 cumulative IPC: 2.45232 (Simulation time: 0 hr 2 min 28 sec) 
Heartbeat CPU 0 instructions: 70000003 cycles: 28544439 heartbeat IPC: 2.45232 cumulative IPC: 2.45232 (Simulation time: 0 hr 2 min 53 sec) 
Heartbeat CPU 0 instructions: 80000003 cycles: 32622192 heartbeat IPC: 2.45233 cumulative IPC: 2.45232 (Simulation time: 0 hr 3 min 18 sec) 
Heartbeat CPU 0 instructions: 90000003 cycles: 36700022 heartbeat IPC: 2.45228 cumulative IPC: 2.45231 (Simulation time: 0 hr 3 min 43 sec) 
Heartbeat CPU 0 instructions: 100000003 cycles: 40777787 heartbeat IPC: 2.45232 cumulative IPC: 2.45232 (Simulation time: 0 hr 4 min 7 sec) 

Warmup complete CPU 0 instructions: 100000003 cycles: 40777787 (Simulation time: 0 hr 4 min 7 sec) 

Heartbeat CPU 0 instructions: 110000000 cycles: 58250767 heartbeat IPC: 0.572312 cumulative IPC: 0.572312 (Simulation time: 0 hr 4 min 38 sec) 
Heartbeat CPU 0 instructions: 120000001 cycles: 75560109 heartbeat IPC: 0.577723 cumulative IPC: 0.575005 (Simulation time: 0 hr 5 min 9 sec) 
Heartbeat CPU 0 instructions: 130000003 cycles: 92753561 heartbeat IPC: 0.581617 cumulative IPC: 0.577192 (Simulation time: 0 hr 5 min 40 sec) 
Heartbeat CPU 0 instructions: 140000003 cycles: 110190557 heartbeat IPC: 0.573493 cumulative IPC: 0.576263 (Simulation time: 0 hr 6 min 11 sec) 
Heartbeat CPU 0 instructions: 150000001 cycles: 127637616 heartbeat IPC: 0.573162 cumulative IPC: 0.57564 (Simulation time: 0 hr 6 min 42 sec) 
Heartbeat CPU 0 instructions: 160000003 cycles: 145045899 heartbeat IPC: 0.574439 cumulative IPC: 0.57544 (Simulation time: 0 hr 7 min 13 sec) 
Heartbeat CPU 0 instructions: 170000002 cycles: 162210271 heartbeat IPC: 0.582602 cumulative IPC: 0.576452 (Simulation time: 0 hr 7 min 44 sec) 
Heartbeat CPU 0 instructions: 180000001 cycles: 179469566 heartbeat IPC: 0.579398 cumulative IPC: 0.576819 (Simulation time: 0 hr 8 min 15 sec) 
Heartbeat CPU 0 instructions: 190000001 cycles: 196862457 heartbeat IPC: 0.574948 cumulative IPC: 0.57661 (Simulation time: 0 hr 8 min 45 sec) 
Heartbeat CPU 0 instructions: 200000003 cycles: 214184424 heartbeat IPC: 0.577302 cumulative IPC: 0.576679 (Simulation time: 0 hr 9 min 16 sec) 
Heartbeat CPU 0 instructions: 210000003 cycles: 231630621 heartbeat IPC: 0.573191 cumulative IPC: 0.57636 (Simulation time: 0 hr 9 min 47 sec) 
Heartbeat CPU 0 instructions: 220000000 cycles: 248733668 heartbeat IPC: 0.584691 cumulative IPC: 0.577045 (Simulation time: 0 hr 10 min 18 sec) 
Heartbeat CPU 0 instructions: 230000002 cycles: 266104193 heartbeat IPC: 0.575688 cumulative IPC: 0.576941 (Simulation time: 0 hr 10 min 50 sec) 
Heartbeat CPU 0 instructions: 240000003 cycles: 283649356 heartbeat IPC: 0.569958 cumulative IPC: 0.576436 (Simulation time: 0 hr 11 min 20 sec) 
Heartbeat CPU 0 instructions: 250000000 cycles: 301047453 heartbeat IPC: 0.574775 cumulative IPC: 0.576325 (Simulation time: 0 hr 11 min 51 sec) 
Heartbeat CPU 0 instructions: 260000000 cycles: 318149680 heartbeat IPC: 0.584719 cumulative IPC: 0.576843 (Simulation time: 0 hr 12 min 22 sec) 
Heartbeat CPU 0 instructions: 270000002 cycles: 334189588 heartbeat IPC: 0.623445 cumulative IPC: 0.57939 (Simulation time: 0 hr 12 min 51 sec) 
Heartbeat CPU 0 instructions: 280000003 cycles: 349594311 heartbeat IPC: 0.649152 cumulative IPC: 0.58287 (Simulation time: 0 hr 13 min 20 sec) 
Heartbeat CPU 0 instructions: 290000000 cycles: 366635825 heartbeat IPC: 0.586802 cumulative IPC: 0.583076 (Simulation time: 0 hr 13 min 51 sec) 
Heartbeat CPU 0 instructions: 300000003 cycles: 383758117 heartbeat IPC: 0.584034 cumulative IPC: 0.583124 (Simulation time: 0 hr 14 min 22 sec) 
Heartbeat CPU 0 instructions: 310000000 cycles: 401134906 heartbeat IPC: 0.57548 cumulative IPC: 0.582755 (Simulation time: 0 hr 14 min 53 sec) 
Heartbeat CPU 0 instructions: 320000000 cycles: 418566960 heartbeat IPC: 0.573656 cumulative IPC: 0.582335 (Simulation time: 0 hr 15 min 25 sec) 
Heartbeat CPU 0 instructions: 330000000 cycles: 435796961 heartbeat IPC: 0.580383 cumulative IPC: 0.58225 (Simulation time: 0 hr 15 min 56 sec) 
Heartbeat CPU 0 instructions: 340000002 cycles: 453292280 heartbeat IPC: 0.571582 cumulative IPC: 0.581798 (Simulation time: 0 hr 16 min 27 sec) 
Heartbeat CPU 0 instructions: 350000003 cycles: 470865250 heartbeat IPC: 0.569056 cumulative IPC: 0.581277 (Simulation time: 0 hr 16 min 59 sec) 
Heartbeat CPU 0 instructions: 360000001 cycles: 488194936 heartbeat IPC: 0.577044 cumulative IPC: 0.581113 (Simulation time: 0 hr 17 min 30 sec) 
Heartbeat CPU 0 instructions: 370000001 cycles: 505706940 heartbeat IPC: 0.571037 cumulative IPC: 0.580734 (Simulation time: 0 hr 18 min 1 sec) 
Heartbeat CPU 0 instructions: 380000001 cycles: 523335223 heartbeat IPC: 0.56727 cumulative IPC: 0.580242 (Simulation time: 0 hr 18 min 32 sec) 
Heartbeat CPU 0 instructions: 390000003 cycles: 540976495 heartbeat IPC: 0.566853 cumulative IPC: 0.57977 (Simulation time: 0 hr 19 min 4 sec) 
Heartbeat CPU 0 instructions: 400000001 cycles: 558610195 heartbeat IPC: 0.567096 cumulative IPC: 0.579338 (Simulation time: 0 hr 19 min 35 sec) 
Heartbeat CPU 0 instructions: 410000001 cycles: 576010803 heartbeat IPC: 0.574693 cumulative IPC: 0.579187 (Simulation time: 0 hr 20 min 7 sec) 
Heartbeat CPU 0 instructions: 420000003 cycles: 593228913 heartbeat IPC: 0.580784 cumulative IPC: 0.579237 (Simulation time: 0 hr 20 min 38 sec) 
Heartbeat CPU 0 instructions: 430000002 cycles: 610702094 heartbeat IPC: 0.572306 cumulative IPC: 0.579024 (Simulation time: 0 hr 21 min 9 sec) 
Heartbeat CPU 0 instructions: 440000000 cycles: 628168516 heartbeat IPC: 0.572527 cumulative IPC: 0.578831 (Simulation time: 0 hr 21 min 40 sec) 
Heartbeat CPU 0 instructions: 450000003 cycles: 645999628 heartbeat IPC: 0.560818 cumulative IPC: 0.5783 (Simulation time: 0 hr 22 min 12 sec) 
Heartbeat CPU 0 instructions: 460000000 cycles: 663533446 heartbeat IPC: 0.570326 cumulative IPC: 0.578076 (Simulation time: 0 hr 22 min 43 sec) 
Heartbeat CPU 0 instructions: 470000000 cycles: 681186268 heartbeat IPC: 0.566482 cumulative IPC: 0.577756 (Simulation time: 0 hr 23 min 15 sec) 
Heartbeat CPU 0 instructions: 480000002 cycles: 698726132 heartbeat IPC: 0.57013 cumulative IPC: 0.577553 (Simulation time: 0 hr 23 min 46 sec) 
Heartbeat CPU 0 instructions: 490000002 cycles: 716158850 heartbeat IPC: 0.573634 cumulative IPC: 0.577452 (Simulation time: 0 hr 24 min 17 sec) 
Heartbeat CPU 0 instructions: 500000003 cycles: 733859394 heartbeat IPC: 0.564954 cumulative IPC: 0.577133 (Simulation time: 0 hr 24 min 49 sec) 
Heartbeat CPU 0 instructions: 510000000 cycles: 751384303 heartbeat IPC: 0.570616 cumulative IPC: 0.576972 (Simulation time: 0 hr 25 min 20 sec) 
Heartbeat CPU 0 instructions: 520000002 cycles: 768598049 heartbeat IPC: 0.580931 cumulative IPC: 0.577066 (Simulation time: 0 hr 25 min 50 sec) 
Heartbeat CPU 0 instructions: 530000000 cycles: 786170693 heartbeat IPC: 0.569066 cumulative IPC: 0.576877 (Simulation time: 0 hr 26 min 21 sec) 
Heartbeat CPU 0 instructions: 540000000 cycles: 803770526 heartbeat IPC: 0.568187 cumulative IPC: 0.576677 (Simulation time: 0 hr 26 min 53 sec) 
Heartbeat CPU 0 instructions: 550000000 cycles: 821525212 heartbeat IPC: 0.563232 cumulative IPC: 0.576371 (Simulation time: 0 hr 27 min 24 sec) 
Heartbeat CPU 0 instructions: 560000001 cycles: 839166707 heartbeat IPC: 0.566845 cumulative IPC: 0.57616 (Simulation time: 0 hr 27 min 55 sec) 
Heartbeat CPU 0 instructions: 570000003 cycles: 856842872 heartbeat IPC: 0.565734 cumulative IPC: 0.575934 (Simulation time: 0 hr 28 min 26 sec) 
Heartbeat CPU 0 instructions: 580000003 cycles: 874441069 heartbeat IPC: 0.56824 cumulative IPC: 0.575772 (Simulation time: 0 hr 28 min 56 sec) 
Heartbeat CPU 0 instructions: 590000001 cycles: 891937582 heartbeat IPC: 0.571542 cumulative IPC: 0.575685 (Simulation time: 0 hr 29 min 27 sec) 
Heartbeat CPU 0 instructions: 600000001 cycles: 909517667 heartbeat IPC: 0.568825 cumulative IPC: 0.575546 (Simulation time: 0 hr 29 min 58 sec) 
Heartbeat CPU 0 instructions: 610000001 cycles: 926973934 heartbeat IPC: 0.57286 cumulative IPC: 0.575493 (Simulation time: 0 hr 30 min 29 sec) 
Heartbeat CPU 0 instructions: 620000001 cycles: 944350254 heartbeat IPC: 0.575496 cumulative IPC: 0.575493 (Simulation time: 0 hr 31 min 0 sec) 
Heartbeat CPU 0 instructions: 630000001 cycles: 961439650 heartbeat IPC: 0.585158 cumulative IPC: 0.575673 (Simulation time: 0 hr 31 min 31 sec) 
Heartbeat CPU 0 instructions: 640000003 cycles: 978580314 heartbeat IPC: 0.583408 cumulative IPC: 0.575814 (Simulation time: 0 hr 32 min 2 sec) 
Heartbeat CPU 0 instructions: 650000003 cycles: 995886550 heartbeat IPC: 0.577826 cumulative IPC: 0.575851 (Simulation time: 0 hr 32 min 32 sec) 
Heartbeat CPU 0 instructions: 660000000 cycles: 1013456199 heartbeat IPC: 0.569163 cumulative IPC: 0.57573 (Simulation time: 0 hr 33 min 3 sec) 
Heartbeat CPU 0 instructions: 670000002 cycles: 1031019671 heartbeat IPC: 0.569364 cumulative IPC: 0.575617 (Simulation time: 0 hr 33 min 35 sec) 
Heartbeat CPU 0 instructions: 680000003 cycles: 1048686780 heartbeat IPC: 0.566024 cumulative IPC: 0.575449 (Simulation time: 0 hr 34 min 6 sec) 
Heartbeat CPU 0 instructions: 690000000 cycles: 1066354885 heartbeat IPC: 0.565991 cumulative IPC: 0.575286 (Simulation time: 0 hr 34 min 37 sec) 
Heartbeat CPU 0 instructions: 700000000 cycles: 1083820826 heartbeat IPC: 0.572543 cumulative IPC: 0.57524 (Simulation time: 0 hr 35 min 8 sec) 
Heartbeat CPU 0 instructions: 710000002 cycles: 1101441185 heartbeat IPC: 0.567525 cumulative IPC: 0.575112 (Simulation time: 0 hr 35 min 39 sec) 
Heartbeat CPU 0 instructions: 720000002 cycles: 1119074410 heartbeat IPC: 0.567111 cumulative IPC: 0.574981 (Simulation time: 0 hr 36 min 10 sec) 
Heartbeat CPU 0 instructions: 730000000 cycles: 1136679969 heartbeat IPC: 0.568002 cumulative IPC: 0.574869 (Simulation time: 0 hr 36 min 41 sec) 
Heartbeat CPU 0 instructions: 740000000 cycles: 1154296839 heartbeat IPC: 0.567638 cumulative IPC: 0.574754 (Simulation time: 0 hr 37 min 12 sec) 
Heartbeat CPU 0 instructions: 750000002 cycles: 1171871520 heartbeat IPC: 0.569 cumulative IPC: 0.574665 (Simulation time: 0 hr 37 min 43 sec) 
Heartbeat CPU 0 instructions: 760000002 cycles: 1189173944 heartbeat IPC: 0.577954 cumulative IPC: 0.574715 (Simulation time: 0 hr 38 min 14 sec) 
Heartbeat CPU 0 instructions: 770000000 cycles: 1206843296 heartbeat IPC: 0.565952 cumulative IPC: 0.574582 (Simulation time: 0 hr 38 min 45 sec) 
Heartbeat CPU 0 instructions: 780000002 cycles: 1224510307 heartbeat IPC: 0.566027 cumulative IPC: 0.574454 (Simulation time: 0 hr 39 min 16 sec) 
Heartbeat CPU 0 instructions: 790000003 cycles: 1242103949 heartbeat IPC: 0.568387 cumulative IPC: 0.574365 (Simulation time: 0 hr 39 min 46 sec) 
Heartbeat CPU 0 instructions: 800000003 cycles: 1259314581 heartbeat IPC: 0.581036 cumulative IPC: 0.574459 (Simulation time: 0 hr 40 min 17 sec) 
Heartbeat CPU 0 instructions: 810000001 cycles: 1276634527 heartbeat IPC: 0.577369 cumulative IPC: 0.5745 (Simulation time: 0 hr 40 min 48 sec) 
Heartbeat CPU 0 instructions: 820000001 cycles: 1294034687 heartbeat IPC: 0.574707 cumulative IPC: 0.574503 (Simulation time: 0 hr 41 min 18 sec) 
Heartbeat CPU 0 instructions: 830000001 cycles: 1311398015 heartbeat IPC: 0.575926 cumulative IPC: 0.574523 (Simulation time: 0 hr 41 min 47 sec) 
Heartbeat CPU 0 instructions: 840000002 cycles: 1328924000 heartbeat IPC: 0.570581 cumulative IPC: 0.574469 (Simulation time: 0 hr 42 min 17 sec) 
Heartbeat CPU 0 instructions: 850000001 cycles: 1346389045 heartbeat IPC: 0.572572 cumulative IPC: 0.574444 (Simulation time: 0 hr 42 min 46 sec) 
Heartbeat CPU 0 instructions: 860000001 cycles: 1364220134 heartbeat IPC: 0.560818 cumulative IPC: 0.57426 (Simulation time: 0 hr 43 min 16 sec) 
Heartbeat CPU 0 instructions: 870000003 cycles: 1381830326 heartbeat IPC: 0.567853 cumulative IPC: 0.574176 (Simulation time: 0 hr 43 min 45 sec) 
Heartbeat CPU 0 instructions: 880000000 cycles: 1399372528 heartbeat IPC: 0.570054 cumulative IPC: 0.574123 (Simulation time: 0 hr 44 min 15 sec) 
Heartbeat CPU 0 instructions: 890000000 cycles: 1416571252 heartbeat IPC: 0.581438 cumulative IPC: 0.574214 (Simulation time: 0 hr 44 min 44 sec) 
Heartbeat CPU 0 instructions: 900000002 cycles: 1433925144 heartbeat IPC: 0.57624 cumulative IPC: 0.574239 (Simulation time: 0 hr 45 min 14 sec) 
Heartbeat CPU 0 instructions: 910000001 cycles: 1451354713 heartbeat IPC: 0.573738 cumulative IPC: 0.574233 (Simulation time: 0 hr 45 min 43 sec) 
Heartbeat CPU 0 instructions: 920000000 cycles: 1468908752 heartbeat IPC: 0.569669 cumulative IPC: 0.574177 (Simulation time: 0 hr 46 min 13 sec) 
Heartbeat CPU 0 instructions: 930000000 cycles: 1486600866 heartbeat IPC: 0.565224 cumulative IPC: 0.574067 (Simulation time: 0 hr 46 min 42 sec) 
Heartbeat CPU 0 instructions: 940000000 cycles: 1503985433 heartbeat IPC: 0.575223 cumulative IPC: 0.574081 (Simulation time: 0 hr 47 min 12 sec) 
Heartbeat CPU 0 instructions: 950000000 cycles: 1521421098 heartbeat IPC: 0.573537 cumulative IPC: 0.574075 (Simulation time: 0 hr 47 min 41 sec) 
Heartbeat CPU 0 instructions: 960000000 cycles: 1538742986 heartbeat IPC: 0.577304 cumulative IPC: 0.574112 (Simulation time: 0 hr 48 min 11 sec) 
Heartbeat CPU 0 instructions: 970000002 cycles: 1556595687 heartbeat IPC: 0.560139 cumulative IPC: 0.573948 (Simulation time: 0 hr 48 min 40 sec) 
Heartbeat CPU 0 instructions: 980000002 cycles: 1574005236 heartbeat IPC: 0.574397 cumulative IPC: 0.573953 (Simulation time: 0 hr 49 min 10 sec) 
Heartbeat CPU 0 instructions: 990000000 cycles: 1591326847 heartbeat IPC: 0.577313 cumulative IPC: 0.57399 (Simulation time: 0 hr 49 min 39 sec) 
Heartbeat CPU 0 instructions: 1000000001 cycles: 1608723098 heartbeat IPC: 0.574837 cumulative IPC: 0.574 (Simulation time: 0 hr 50 min 9 sec) 
Heartbeat CPU 0 instructions: 1010000002 cycles: 1626123135 heartbeat IPC: 0.574712 cumulative IPC: 0.574007 (Simulation time: 0 hr 50 min 39 sec) 
Heartbeat CPU 0 instructions: 1020000003 cycles: 1643768954 heartbeat IPC: 0.566707 cumulative IPC: 0.573927 (Simulation time: 0 hr 51 min 8 sec) 
Heartbeat CPU 0 instructions: 1030000003 cycles: 1661484693 heartbeat IPC: 0.56447 cumulative IPC: 0.573824 (Simulation time: 0 hr 51 min 38 sec) 
Heartbeat CPU 0 instructions: 1040000001 cycles: 1678861288 heartbeat IPC: 0.575487 cumulative IPC: 0.573841 (Simulation time: 0 hr 52 min 7 sec) 
Heartbeat CPU 0 instructions: 1050000001 cycles: 1696309078 heartbeat IPC: 0.573138 cumulative IPC: 0.573834 (Simulation time: 0 hr 52 min 37 sec) 
Heartbeat CPU 0 instructions: 1060000002 cycles: 1713921996 heartbeat IPC: 0.567765 cumulative IPC: 0.57377 (Simulation time: 0 hr 53 min 6 sec) 
Heartbeat CPU 0 instructions: 1070000002 cycles: 1731514438 heartbeat IPC: 0.568426 cumulative IPC: 0.573714 (Simulation time: 0 hr 53 min 36 sec) 
Heartbeat CPU 0 instructions: 1080000001 cycles: 1749039549 heartbeat IPC: 0.57061 cumulative IPC: 0.573683 (Simulation time: 0 hr 54 min 5 sec) 
Heartbeat CPU 0 instructions: 1090000001 cycles: 1766553303 heartbeat IPC: 0.57098 cumulative IPC: 0.573655 (Simulation time: 0 hr 54 min 34 sec) 
Heartbeat CPU 0 instructions: 1100000000 cycles: 1784142360 heartbeat IPC: 0.568535 cumulative IPC: 0.573604 (Simulation time: 0 hr 55 min 4 sec) 
Finished CPU 0 instructions: 1000000000 cycles: 1743364575 cumulative IPC: 0.573603 (Simulation time: 0 hr 55 min 4 sec) 

ChampSim completed all CPUs

Region of Interest Statistics

CPU 0 cumulative IPC: 0.573603 instructions: 1000000000 cycles: 1743364575
L1D TOTAL     ACCESS:  200835874  HIT:  187644657  MISS:   13191217
L1D LOAD      ACCESS:  130560770  HIT:  117386846  MISS:   13173924
L1D RFO       ACCESS:   70275104  HIT:   70257811  MISS:      17293
L1D PREFETCH  ACCESS:          0  HIT:          0  MISS:          0
L1D WRITEBACK ACCESS:          0  HIT:          0  MISS:          0
L1D PREFETCH  REQUESTED:          0  ISSUED:          0  USEFUL:          0  USELESS:          0
L1D AVERAGE MISS LATENCY: 166.832 cycles
L1I TOTAL     ACCESS:  156857555  HIT:  156857278  MISS:        277
L1I LOAD      ACCESS:  156857555  HIT:  156857278  MISS:        277
L1I RFO       ACCESS:          0  HIT:          0  MISS:          0
L1I PREFETCH  ACCESS:          0  HIT:          0  MISS:          0
L1I WRITEBACK ACCESS:          0  HIT:          0  MISS:          0
L1I PREFETCH  REQUESTED:          0  ISSUED:          0  USEFUL:          0  USELESS:          0
L1I AVERAGE MISS LATENCY: 210.329 cycles
L2C TOTAL     ACCESS:   21948149  HIT:    8773144  MISS:   13175005
L2C LOAD      ACCESS:   13174201  HIT:      13287  MISS:   13160914
L2C RFO       ACCESS:      17293  HIT:       3202  MISS:      14091
L2C PREFETCH  ACCESS:          0  HIT:          0  MISS:          0
L2C WRITEBACK ACCESS:    8756655  HIT:    8756655  MISS:          0
L2C PREFETCH  REQUESTED:          0  ISSUED:          0  USEFUL:          0  USELESS:          0
L2C AVERAGE MISS LATENCY: 154.962 cycles
LLC TOTAL     ACCESS:   21925126  HIT:    5565703  MISS:   16359423
LLC LOAD      ACCESS:   13160914  HIT:    4406491  MISS:    8754423
LLC RFO       ACCESS:      14091  HIT:      14085  MISS:          6
LLC PREFETCH  ACCESS:          0  HIT:          0  MISS:          0
LLC WRITEBACK ACCESS:    8750121  HIT:    1145127  MISS:    7604994
LLC PREFETCH  REQUESTED:          0  ISSUED:          0  USEFUL:          0  USELESS:          0
LLC AVERAGE MISS LATENCY: 92.4953 cycles
Major fault: 0 Minor fault: 150551
==============================
Perceptron RRIP Stats:
   Num Updates:          24089627
   Num Primary Trains:   191150
   Num Secondary Trains: 25254
==============================
primary_perceptron #0: 0 2 0 0 2 0 0 2 0 0 2 -2 2 0 4 -16 
secondary_perceptron #0: 2 -2 2 2 0 4 0 0 0 -2 4 2 4 0 2 -4 2 4 0 0 -32 


DRAM Statistics
 CHANNEL 0
 RQ ROW_BUFFER_HIT:     893579  ROW_BUFFER_MISS:    7860850
 DBUS_CONGESTED:    3623418
 WQ ROW_BUFFER_HIT:    5513864  ROW_BUFFER_MISS:    3219128  FULL:          0

 AVG_CONGESTED_CYCLE: 6

CPU 0 Branch Prediction Accuracy: 99.8879% MPKI: 0.020211 Average ROB Occupancy at Mispredict: 146.296

Branch types
NOT_BRANCH: 981968651 98.1969%
BRANCH_DIRECT_JUMP: 75894 0.0075894%
BRANCH_INDIRECT: 0 0%
BRANCH_CONDITIONAL: 17834435 1.78344%
BRANCH_DIRECT_CALL: 60502 0.0060502%
BRANCH_INDIRECT_CALL: 0 0%
BRANCH_RETURN: 60502 0.0060502%
BRANCH_OTHER: 0 0%

