
*** ChampSim Multicore Out-of-Order Simulator ***

Warmup Instructions: 100000000
Simulation Instructions: 1000000000
Number of CPUs: 1
LLC sets: 2048
LLC ways: 16
Off-chip DRAM Size: 4096 MB Channels: 1 Width: 64-bit Data Rate: 3200 MT/s

CPU 0 runs /scratch/user/kevin.weston/dpc3-traces/649.champsimtrace.xz
CPU 0 Bimodal branch predictor
Per-line RRPV Initialized
PRRIP State Initialized
Assign SAMPLER_SET[0]: 454  LLC: 2048
SAMPLER_SET[0]: 454
Assign SAMPLER_SET[1]: 1662  LLC: 2048
SAMPLER_SET[1]: 1662
Assign SAMPLER_SET[2]: 1921  LLC: 2048
SAMPLER_SET[2]: 1921
Assign SAMPLER_SET[3]: 1131  LLC: 2048
SAMPLER_SET[3]: 1131
Assign SAMPLER_SET[4]: 331  LLC: 2048
SAMPLER_SET[4]: 331
Assign SAMPLER_SET[5]: 1531  LLC: 2048
SAMPLER_SET[5]: 1531
Assign SAMPLER_SET[6]: 482  LLC: 2048
SAMPLER_SET[6]: 482
Assign SAMPLER_SET[7]: 1275  LLC: 2048
SAMPLER_SET[7]: 1275
Assign SAMPLER_SET[8]: 1876  LLC: 2048
SAMPLER_SET[8]: 1876
Assign SAMPLER_SET[9]: 2038  LLC: 2048
SAMPLER_SET[9]: 2038
Assign SAMPLER_SET[10]: 701  LLC: 2048
SAMPLER_SET[10]: 701
Assign SAMPLER_SET[11]: 479  LLC: 2048
SAMPLER_SET[11]: 479
Assign SAMPLER_SET[12]: 892  LLC: 2048
SAMPLER_SET[12]: 892
Assign SAMPLER_SET[13]: 1820  LLC: 2048
SAMPLER_SET[13]: 1820
Assign SAMPLER_SET[14]: 1505  LLC: 2048
SAMPLER_SET[14]: 1505
Assign SAMPLER_SET[15]: 1159  LLC: 2048
SAMPLER_SET[15]: 1159
Assign SAMPLER_SET[16]: 513  LLC: 2048
SAMPLER_SET[16]: 513
Assign SAMPLER_SET[17]: 703  LLC: 2048
SAMPLER_SET[17]: 703
Assign SAMPLER_SET[18]: 561  LLC: 2048
SAMPLER_SET[18]: 561
Assign SAMPLER_SET[19]: 990  LLC: 2048
SAMPLER_SET[19]: 990
Assign SAMPLER_SET[20]: 342  LLC: 2048
SAMPLER_SET[20]: 342
Assign SAMPLER_SET[21]: 882  LLC: 2048
SAMPLER_SET[21]: 882
Assign SAMPLER_SET[22]: 15  LLC: 2048
SAMPLER_SET[22]: 15
Assign SAMPLER_SET[23]: 71  LLC: 2048
SAMPLER_SET[23]: 71
Assign SAMPLER_SET[24]: 1127  LLC: 2048
SAMPLER_SET[24]: 1127
Assign SAMPLER_SET[25]: 1382  LLC: 2048
SAMPLER_SET[25]: 1382
Assign SAMPLER_SET[26]: 647  LLC: 2048
SAMPLER_SET[26]: 647
Assign SAMPLER_SET[27]: 857  LLC: 2048
SAMPLER_SET[27]: 857
Assign SAMPLER_SET[28]: 1450  LLC: 2048
SAMPLER_SET[28]: 1450
Assign SAMPLER_SET[29]: 1160  LLC: 2048
SAMPLER_SET[29]: 1160
Assign SAMPLER_SET[30]: 1852  LLC: 2048
SAMPLER_SET[30]: 1852
Assign SAMPLER_SET[31]: 1881  LLC: 2048
SAMPLER_SET[31]: 1881
Assign SAMPLER_SET[32]: 1770  LLC: 2048
SAMPLER_SET[32]: 1770
Assign SAMPLER_SET[33]: 1622  LLC: 2048
SAMPLER_SET[33]: 1622
Assign SAMPLER_SET[34]: 275  LLC: 2048
SAMPLER_SET[34]: 275
Assign SAMPLER_SET[35]: 635  LLC: 2048
SAMPLER_SET[35]: 635
Assign SAMPLER_SET[36]: 466  LLC: 2048
SAMPLER_SET[36]: 466
Assign SAMPLER_SET[37]: 1413  LLC: 2048
SAMPLER_SET[37]: 1413
Assign SAMPLER_SET[38]: 417  LLC: 2048
SAMPLER_SET[38]: 417
Assign SAMPLER_SET[39]: 472  LLC: 2048
SAMPLER_SET[39]: 472
Assign SAMPLER_SET[40]: 1340  LLC: 2048
SAMPLER_SET[40]: 1340
Assign SAMPLER_SET[41]: 852  LLC: 2048
SAMPLER_SET[41]: 852
Assign SAMPLER_SET[42]: 1365  LLC: 2048
SAMPLER_SET[42]: 1365
Assign SAMPLER_SET[43]: 47  LLC: 2048
SAMPLER_SET[43]: 47
Assign SAMPLER_SET[44]: 823  LLC: 2048
SAMPLER_SET[44]: 823
Assign SAMPLER_SET[45]: 686  LLC: 2048
SAMPLER_SET[45]: 686
Assign SAMPLER_SET[46]: 1637  LLC: 2048
SAMPLER_SET[46]: 1637
Assign SAMPLER_SET[47]: 1115  LLC: 2048
SAMPLER_SET[47]: 1115
Assign SAMPLER_SET[48]: 986  LLC: 2048
SAMPLER_SET[48]: 986
Assign SAMPLER_SET[49]: 258  LLC: 2048
SAMPLER_SET[49]: 258
Assign SAMPLER_SET[50]: 633  LLC: 2048
SAMPLER_SET[50]: 633
Assign SAMPLER_SET[51]: 920  LLC: 2048
SAMPLER_SET[51]: 920
Assign SAMPLER_SET[52]: 204  LLC: 2048
SAMPLER_SET[52]: 204
Assign SAMPLER_SET[53]: 227  LLC: 2048
SAMPLER_SET[53]: 227
Assign SAMPLER_SET[54]: 1818  LLC: 2048
SAMPLER_SET[54]: 1818
Assign SAMPLER_SET[55]: 886  LLC: 2048
SAMPLER_SET[55]: 886
Assign SAMPLER_SET[56]: 1422  LLC: 2048
SAMPLER_SET[56]: 1422
Assign SAMPLER_SET[57]: 607  LLC: 2048
SAMPLER_SET[57]: 607
Assign SAMPLER_SET[58]: 217  LLC: 2048
SAMPLER_SET[58]: 217
Assign SAMPLER_SET[59]: 1945  LLC: 2048
SAMPLER_SET[59]: 1945
Assign SAMPLER_SET[60]: 143  LLC: 2048
SAMPLER_SET[60]: 143
Assign SAMPLER_SET[61]: 1311  LLC: 2048
SAMPLER_SET[61]: 1311
Assign SAMPLER_SET[62]: 319  LLC: 2048
SAMPLER_SET[62]: 319
Assign SAMPLER_SET[63]: 1846  LLC: 2048
SAMPLER_SET[63]: 1846
Heartbeat CPU 0 instructions: 10000000 cycles: 4077797 heartbeat IPC: 2.4523 cumulative IPC: 2.4523 (Simulation time: 0 hr 0 min 23 sec) 
Heartbeat CPU 0 instructions: 20000000 cycles: 8155550 heartbeat IPC: 2.45233 cumulative IPC: 2.45232 (Simulation time: 0 hr 0 min 46 sec) 
Heartbeat CPU 0 instructions: 30000000 cycles: 12233350 heartbeat IPC: 2.4523 cumulative IPC: 2.45231 (Simulation time: 0 hr 1 min 9 sec) 
Heartbeat CPU 0 instructions: 40000003 cycles: 16311135 heartbeat IPC: 2.45231 cumulative IPC: 2.45231 (Simulation time: 0 hr 1 min 32 sec) 
Heartbeat CPU 0 instructions: 50000002 cycles: 20388846 heartbeat IPC: 2.45236 cumulative IPC: 2.45232 (Simulation time: 0 hr 1 min 54 sec) 
Heartbeat CPU 0 instructions: 60000003 cycles: 24466745 heartbeat IPC: 2.45224 cumulative IPC: 2.45231 (Simulation time: 0 hr 2 min 17 sec) 
Heartbeat CPU 0 instructions: 70000003 cycles: 28544511 heartbeat IPC: 2.45232 cumulative IPC: 2.45231 (Simulation time: 0 hr 2 min 40 sec) 
Heartbeat CPU 0 instructions: 80000003 cycles: 32622318 heartbeat IPC: 2.4523 cumulative IPC: 2.45231 (Simulation time: 0 hr 3 min 3 sec) 
Heartbeat CPU 0 instructions: 90000003 cycles: 36700178 heartbeat IPC: 2.45227 cumulative IPC: 2.4523 (Simulation time: 0 hr 3 min 26 sec) 
Heartbeat CPU 0 instructions: 100000003 cycles: 40777992 heartbeat IPC: 2.45229 cumulative IPC: 2.4523 (Simulation time: 0 hr 3 min 49 sec) 

Warmup complete CPU 0 instructions: 100000003 cycles: 40777992 (Simulation time: 0 hr 3 min 49 sec) 

Heartbeat CPU 0 instructions: 110000000 cycles: 58386891 heartbeat IPC: 0.567895 cumulative IPC: 0.567895 (Simulation time: 0 hr 4 min 18 sec) 
Heartbeat CPU 0 instructions: 120000001 cycles: 76007421 heartbeat IPC: 0.56752 cumulative IPC: 0.567707 (Simulation time: 0 hr 4 min 47 sec) 
Heartbeat CPU 0 instructions: 130000003 cycles: 93645655 heartbeat IPC: 0.56695 cumulative IPC: 0.567455 (Simulation time: 0 hr 5 min 16 sec) 
Heartbeat CPU 0 instructions: 140000003 cycles: 111253427 heartbeat IPC: 0.567931 cumulative IPC: 0.567574 (Simulation time: 0 hr 5 min 45 sec) 
Heartbeat CPU 0 instructions: 150000001 cycles: 128912330 heartbeat IPC: 0.566287 cumulative IPC: 0.567316 (Simulation time: 0 hr 6 min 14 sec) 
Heartbeat CPU 0 instructions: 160000003 cycles: 146311887 heartbeat IPC: 0.574727 cumulative IPC: 0.568538 (Simulation time: 0 hr 6 min 43 sec) 
Heartbeat CPU 0 instructions: 170000002 cycles: 163842566 heartbeat IPC: 0.570428 cumulative IPC: 0.568807 (Simulation time: 0 hr 7 min 12 sec) 
Heartbeat CPU 0 instructions: 180000001 cycles: 181512786 heartbeat IPC: 0.565924 cumulative IPC: 0.568445 (Simulation time: 0 hr 7 min 41 sec) 
Heartbeat CPU 0 instructions: 190000001 cycles: 199108700 heartbeat IPC: 0.568314 cumulative IPC: 0.56843 (Simulation time: 0 hr 8 min 10 sec) 
Heartbeat CPU 0 instructions: 200000003 cycles: 216905643 heartbeat IPC: 0.561894 cumulative IPC: 0.56777 (Simulation time: 0 hr 8 min 39 sec) 
Heartbeat CPU 0 instructions: 210000003 cycles: 234375844 heartbeat IPC: 0.572403 cumulative IPC: 0.568188 (Simulation time: 0 hr 9 min 8 sec) 
Heartbeat CPU 0 instructions: 220000000 cycles: 251877206 heartbeat IPC: 0.571384 cumulative IPC: 0.568453 (Simulation time: 0 hr 9 min 37 sec) 
Heartbeat CPU 0 instructions: 230000002 cycles: 269543937 heartbeat IPC: 0.566036 cumulative IPC: 0.568266 (Simulation time: 0 hr 10 min 6 sec) 
Heartbeat CPU 0 instructions: 240000003 cycles: 287155477 heartbeat IPC: 0.56781 cumulative IPC: 0.568234 (Simulation time: 0 hr 10 min 35 sec) 
Heartbeat CPU 0 instructions: 250000000 cycles: 304636102 heartbeat IPC: 0.572062 cumulative IPC: 0.568487 (Simulation time: 0 hr 11 min 5 sec) 
Heartbeat CPU 0 instructions: 260000000 cycles: 322194998 heartbeat IPC: 0.569512 cumulative IPC: 0.568551 (Simulation time: 0 hr 11 min 34 sec) 
Heartbeat CPU 0 instructions: 270000002 cycles: 338685284 heartbeat IPC: 0.606418 cumulative IPC: 0.570647 (Simulation time: 0 hr 12 min 1 sec) 
Heartbeat CPU 0 instructions: 280000003 cycles: 354187993 heartbeat IPC: 0.645049 cumulative IPC: 0.574328 (Simulation time: 0 hr 12 min 28 sec) 
Heartbeat CPU 0 instructions: 290000000 cycles: 371880887 heartbeat IPC: 0.565198 cumulative IPC: 0.57384 (Simulation time: 0 hr 12 min 57 sec) 
Heartbeat CPU 0 instructions: 300000003 cycles: 389460939 heartbeat IPC: 0.568827 cumulative IPC: 0.573587 (Simulation time: 0 hr 13 min 27 sec) 
Heartbeat CPU 0 instructions: 310000000 cycles: 407142830 heartbeat IPC: 0.56555 cumulative IPC: 0.573199 (Simulation time: 0 hr 13 min 56 sec) 
Heartbeat CPU 0 instructions: 320000000 cycles: 424679981 heartbeat IPC: 0.570218 cumulative IPC: 0.573063 (Simulation time: 0 hr 14 min 26 sec) 
Heartbeat CPU 0 instructions: 330000000 cycles: 442321312 heartbeat IPC: 0.566851 cumulative IPC: 0.57279 (Simulation time: 0 hr 14 min 55 sec) 
Heartbeat CPU 0 instructions: 340000002 cycles: 459864866 heartbeat IPC: 0.57001 cumulative IPC: 0.572674 (Simulation time: 0 hr 15 min 24 sec) 
Heartbeat CPU 0 instructions: 350000003 cycles: 477400803 heartbeat IPC: 0.570258 cumulative IPC: 0.572577 (Simulation time: 0 hr 15 min 53 sec) 
Heartbeat CPU 0 instructions: 360000001 cycles: 495009904 heartbeat IPC: 0.567888 cumulative IPC: 0.572395 (Simulation time: 0 hr 16 min 23 sec) 
Heartbeat CPU 0 instructions: 370000001 cycles: 512655550 heartbeat IPC: 0.566712 cumulative IPC: 0.572182 (Simulation time: 0 hr 16 min 52 sec) 
Heartbeat CPU 0 instructions: 380000001 cycles: 530174757 heartbeat IPC: 0.570802 cumulative IPC: 0.572133 (Simulation time: 0 hr 17 min 21 sec) 
Heartbeat CPU 0 instructions: 390000003 cycles: 547818000 heartbeat IPC: 0.566789 cumulative IPC: 0.571947 (Simulation time: 0 hr 17 min 50 sec) 
Heartbeat CPU 0 instructions: 400000001 cycles: 565236533 heartbeat IPC: 0.574101 cumulative IPC: 0.572019 (Simulation time: 0 hr 18 min 19 sec) 
Heartbeat CPU 0 instructions: 410000001 cycles: 582817342 heartbeat IPC: 0.568802 cumulative IPC: 0.571914 (Simulation time: 0 hr 18 min 48 sec) 
Heartbeat CPU 0 instructions: 420000003 cycles: 600317572 heartbeat IPC: 0.571421 cumulative IPC: 0.571899 (Simulation time: 0 hr 19 min 17 sec) 
Heartbeat CPU 0 instructions: 430000002 cycles: 617958250 heartbeat IPC: 0.566872 cumulative IPC: 0.571745 (Simulation time: 0 hr 19 min 46 sec) 
Heartbeat CPU 0 instructions: 440000000 cycles: 635368272 heartbeat IPC: 0.574382 cumulative IPC: 0.571822 (Simulation time: 0 hr 20 min 15 sec) 
Heartbeat CPU 0 instructions: 450000003 cycles: 652896317 heartbeat IPC: 0.570514 cumulative IPC: 0.571785 (Simulation time: 0 hr 20 min 44 sec) 
Heartbeat CPU 0 instructions: 460000000 cycles: 670674992 heartbeat IPC: 0.562471 cumulative IPC: 0.571522 (Simulation time: 0 hr 21 min 13 sec) 
Heartbeat CPU 0 instructions: 470000000 cycles: 688356599 heartbeat IPC: 0.565559 cumulative IPC: 0.571359 (Simulation time: 0 hr 21 min 42 sec) 
Heartbeat CPU 0 instructions: 480000002 cycles: 705994577 heartbeat IPC: 0.566959 cumulative IPC: 0.571243 (Simulation time: 0 hr 22 min 11 sec) 
Heartbeat CPU 0 instructions: 490000002 cycles: 723500040 heartbeat IPC: 0.57125 cumulative IPC: 0.571243 (Simulation time: 0 hr 22 min 40 sec) 
Heartbeat CPU 0 instructions: 500000003 cycles: 741230157 heartbeat IPC: 0.564012 cumulative IPC: 0.57106 (Simulation time: 0 hr 23 min 9 sec) 
Heartbeat CPU 0 instructions: 510000000 cycles: 758921997 heartbeat IPC: 0.565232 cumulative IPC: 0.570916 (Simulation time: 0 hr 23 min 38 sec) 
Heartbeat CPU 0 instructions: 520000002 cycles: 776636151 heartbeat IPC: 0.56452 cumulative IPC: 0.570762 (Simulation time: 0 hr 24 min 6 sec) 
Heartbeat CPU 0 instructions: 530000000 cycles: 794330123 heartbeat IPC: 0.565164 cumulative IPC: 0.570631 (Simulation time: 0 hr 24 min 35 sec) 
Heartbeat CPU 0 instructions: 540000000 cycles: 811809002 heartbeat IPC: 0.572119 cumulative IPC: 0.570664 (Simulation time: 0 hr 25 min 4 sec) 
Heartbeat CPU 0 instructions: 550000000 cycles: 829183474 heartbeat IPC: 0.575557 cumulative IPC: 0.570772 (Simulation time: 0 hr 25 min 33 sec) 
Heartbeat CPU 0 instructions: 560000001 cycles: 846734513 heartbeat IPC: 0.569767 cumulative IPC: 0.57075 (Simulation time: 0 hr 26 min 2 sec) 
Heartbeat CPU 0 instructions: 570000003 cycles: 864261523 heartbeat IPC: 0.570548 cumulative IPC: 0.570746 (Simulation time: 0 hr 26 min 31 sec) 
Heartbeat CPU 0 instructions: 580000003 cycles: 881839259 heartbeat IPC: 0.568901 cumulative IPC: 0.570708 (Simulation time: 0 hr 27 min 1 sec) 
Heartbeat CPU 0 instructions: 590000001 cycles: 899421480 heartbeat IPC: 0.568756 cumulative IPC: 0.570668 (Simulation time: 0 hr 27 min 30 sec) 
Heartbeat CPU 0 instructions: 600000001 cycles: 917028049 heartbeat IPC: 0.56797 cumulative IPC: 0.570613 (Simulation time: 0 hr 27 min 59 sec) 
Heartbeat CPU 0 instructions: 610000001 cycles: 934710284 heartbeat IPC: 0.565539 cumulative IPC: 0.570513 (Simulation time: 0 hr 28 min 28 sec) 
Heartbeat CPU 0 instructions: 620000001 cycles: 952350057 heartbeat IPC: 0.566901 cumulative IPC: 0.570443 (Simulation time: 0 hr 28 min 57 sec) 
Heartbeat CPU 0 instructions: 630000001 cycles: 969850901 heartbeat IPC: 0.571401 cumulative IPC: 0.570461 (Simulation time: 0 hr 29 min 26 sec) 
Heartbeat CPU 0 instructions: 640000003 cycles: 987612811 heartbeat IPC: 0.563003 cumulative IPC: 0.570321 (Simulation time: 0 hr 29 min 55 sec) 
Heartbeat CPU 0 instructions: 650000003 cycles: 1005160155 heartbeat IPC: 0.569887 cumulative IPC: 0.570313 (Simulation time: 0 hr 30 min 24 sec) 
Heartbeat CPU 0 instructions: 660000000 cycles: 1022580306 heartbeat IPC: 0.574048 cumulative IPC: 0.57038 (Simulation time: 0 hr 30 min 53 sec) 
Heartbeat CPU 0 instructions: 670000002 cycles: 1040370637 heartbeat IPC: 0.562103 cumulative IPC: 0.570232 (Simulation time: 0 hr 31 min 23 sec) 
Heartbeat CPU 0 instructions: 680000003 cycles: 1057833732 heartbeat IPC: 0.572636 cumulative IPC: 0.570274 (Simulation time: 0 hr 31 min 52 sec) 
Heartbeat CPU 0 instructions: 690000000 cycles: 1075422166 heartbeat IPC: 0.568555 cumulative IPC: 0.570244 (Simulation time: 0 hr 32 min 21 sec) 
Heartbeat CPU 0 instructions: 700000000 cycles: 1092899427 heartbeat IPC: 0.572172 cumulative IPC: 0.570276 (Simulation time: 0 hr 32 min 50 sec) 
Heartbeat CPU 0 instructions: 710000002 cycles: 1110579616 heartbeat IPC: 0.565605 cumulative IPC: 0.570199 (Simulation time: 0 hr 33 min 19 sec) 
Heartbeat CPU 0 instructions: 720000002 cycles: 1128035168 heartbeat IPC: 0.572884 cumulative IPC: 0.570242 (Simulation time: 0 hr 33 min 49 sec) 
Heartbeat CPU 0 instructions: 730000000 cycles: 1145789193 heartbeat IPC: 0.563252 cumulative IPC: 0.57013 (Simulation time: 0 hr 34 min 19 sec) 
Heartbeat CPU 0 instructions: 740000000 cycles: 1163383105 heartbeat IPC: 0.568378 cumulative IPC: 0.570103 (Simulation time: 0 hr 34 min 48 sec) 
Heartbeat CPU 0 instructions: 750000002 cycles: 1181074381 heartbeat IPC: 0.56525 cumulative IPC: 0.570027 (Simulation time: 0 hr 35 min 18 sec) 
Heartbeat CPU 0 instructions: 760000002 cycles: 1198799924 heartbeat IPC: 0.564158 cumulative IPC: 0.569937 (Simulation time: 0 hr 35 min 48 sec) 
Heartbeat CPU 0 instructions: 770000000 cycles: 1216529007 heartbeat IPC: 0.564045 cumulative IPC: 0.569849 (Simulation time: 0 hr 36 min 17 sec) 
Heartbeat CPU 0 instructions: 780000002 cycles: 1234093736 heartbeat IPC: 0.569323 cumulative IPC: 0.569841 (Simulation time: 0 hr 36 min 47 sec) 
Heartbeat CPU 0 instructions: 790000003 cycles: 1251893345 heartbeat IPC: 0.56181 cumulative IPC: 0.569723 (Simulation time: 0 hr 37 min 16 sec) 
Heartbeat CPU 0 instructions: 800000003 cycles: 1269563968 heartbeat IPC: 0.565911 cumulative IPC: 0.569668 (Simulation time: 0 hr 37 min 46 sec) 
Heartbeat CPU 0 instructions: 810000001 cycles: 1287312590 heartbeat IPC: 0.563424 cumulative IPC: 0.569579 (Simulation time: 0 hr 38 min 15 sec) 
Heartbeat CPU 0 instructions: 820000001 cycles: 1304876411 heartbeat IPC: 0.569352 cumulative IPC: 0.569576 (Simulation time: 0 hr 38 min 44 sec) 
Heartbeat CPU 0 instructions: 830000001 cycles: 1322577942 heartbeat IPC: 0.564923 cumulative IPC: 0.569512 (Simulation time: 0 hr 39 min 13 sec) 
Heartbeat CPU 0 instructions: 840000002 cycles: 1340196905 heartbeat IPC: 0.56757 cumulative IPC: 0.569485 (Simulation time: 0 hr 39 min 43 sec) 
Heartbeat CPU 0 instructions: 850000001 cycles: 1357918577 heartbeat IPC: 0.564281 cumulative IPC: 0.569415 (Simulation time: 0 hr 40 min 12 sec) 
Heartbeat CPU 0 instructions: 860000001 cycles: 1375683270 heartbeat IPC: 0.562914 cumulative IPC: 0.569329 (Simulation time: 0 hr 40 min 41 sec) 
Heartbeat CPU 0 instructions: 870000003 cycles: 1393261653 heartbeat IPC: 0.568881 cumulative IPC: 0.569323 (Simulation time: 0 hr 41 min 10 sec) 
Heartbeat CPU 0 instructions: 880000000 cycles: 1411080320 heartbeat IPC: 0.561209 cumulative IPC: 0.569217 (Simulation time: 0 hr 41 min 39 sec) 
Heartbeat CPU 0 instructions: 890000000 cycles: 1428632096 heartbeat IPC: 0.569743 cumulative IPC: 0.569224 (Simulation time: 0 hr 42 min 8 sec) 
Heartbeat CPU 0 instructions: 900000002 cycles: 1446275596 heartbeat IPC: 0.566781 cumulative IPC: 0.569193 (Simulation time: 0 hr 42 min 37 sec) 
Heartbeat CPU 0 instructions: 910000001 cycles: 1463929816 heartbeat IPC: 0.566437 cumulative IPC: 0.569159 (Simulation time: 0 hr 43 min 6 sec) 
Heartbeat CPU 0 instructions: 920000000 cycles: 1481410256 heartbeat IPC: 0.572068 cumulative IPC: 0.569194 (Simulation time: 0 hr 43 min 35 sec) 
Heartbeat CPU 0 instructions: 930000000 cycles: 1499116272 heartbeat IPC: 0.56478 cumulative IPC: 0.569141 (Simulation time: 0 hr 44 min 4 sec) 
Heartbeat CPU 0 instructions: 940000000 cycles: 1516628980 heartbeat IPC: 0.571014 cumulative IPC: 0.569163 (Simulation time: 0 hr 44 min 33 sec) 
Heartbeat CPU 0 instructions: 950000000 cycles: 1534328265 heartbeat IPC: 0.564995 cumulative IPC: 0.569114 (Simulation time: 0 hr 45 min 3 sec) 
Heartbeat CPU 0 instructions: 960000000 cycles: 1551690240 heartbeat IPC: 0.575971 cumulative IPC: 0.569193 (Simulation time: 0 hr 45 min 32 sec) 
Heartbeat CPU 0 instructions: 970000002 cycles: 1569185584 heartbeat IPC: 0.571581 cumulative IPC: 0.56922 (Simulation time: 0 hr 46 min 1 sec) 
Heartbeat CPU 0 instructions: 980000002 cycles: 1586900611 heartbeat IPC: 0.564493 cumulative IPC: 0.569166 (Simulation time: 0 hr 46 min 30 sec) 
Heartbeat CPU 0 instructions: 990000000 cycles: 1604604414 heartbeat IPC: 0.56485 cumulative IPC: 0.569117 (Simulation time: 0 hr 46 min 59 sec) 
Heartbeat CPU 0 instructions: 1000000001 cycles: 1622252055 heartbeat IPC: 0.566648 cumulative IPC: 0.569089 (Simulation time: 0 hr 47 min 28 sec) 
Heartbeat CPU 0 instructions: 1010000002 cycles: 1639722738 heartbeat IPC: 0.572388 cumulative IPC: 0.569125 (Simulation time: 0 hr 47 min 57 sec) 
Heartbeat CPU 0 instructions: 1020000003 cycles: 1657392816 heartbeat IPC: 0.565929 cumulative IPC: 0.56909 (Simulation time: 0 hr 48 min 26 sec) 
Heartbeat CPU 0 instructions: 1030000003 cycles: 1674917046 heartbeat IPC: 0.570638 cumulative IPC: 0.569107 (Simulation time: 0 hr 48 min 55 sec) 
Heartbeat CPU 0 instructions: 1040000001 cycles: 1692356352 heartbeat IPC: 0.573417 cumulative IPC: 0.569153 (Simulation time: 0 hr 49 min 24 sec) 
Heartbeat CPU 0 instructions: 1050000001 cycles: 1710143160 heartbeat IPC: 0.562214 cumulative IPC: 0.569079 (Simulation time: 0 hr 49 min 53 sec) 
Heartbeat CPU 0 instructions: 1060000002 cycles: 1727786103 heartbeat IPC: 0.566799 cumulative IPC: 0.569055 (Simulation time: 0 hr 50 min 22 sec) 
Heartbeat CPU 0 instructions: 1070000002 cycles: 1745353794 heartbeat IPC: 0.569227 cumulative IPC: 0.569057 (Simulation time: 0 hr 50 min 51 sec) 
Heartbeat CPU 0 instructions: 1080000001 cycles: 1763025490 heartbeat IPC: 0.565877 cumulative IPC: 0.569024 (Simulation time: 0 hr 51 min 21 sec) 
Heartbeat CPU 0 instructions: 1090000001 cycles: 1780740091 heartbeat IPC: 0.564506 cumulative IPC: 0.568978 (Simulation time: 0 hr 51 min 50 sec) 
Heartbeat CPU 0 instructions: 1100000000 cycles: 1798394698 heartbeat IPC: 0.566424 cumulative IPC: 0.568952 (Simulation time: 0 hr 52 min 19 sec) 
Finished CPU 0 instructions: 1000000000 cycles: 1757616708 cumulative IPC: 0.568952 (Simulation time: 0 hr 52 min 19 sec) 

ChampSim completed all CPUs

Region of Interest Statistics

CPU 0 cumulative IPC: 0.568952 instructions: 1000000000 cycles: 1757616708
L1D TOTAL     ACCESS:  200865243  HIT:  187674026  MISS:   13191217
L1D LOAD      ACCESS:  130590072  HIT:  117416148  MISS:   13173924
L1D RFO       ACCESS:   70275171  HIT:   70257878  MISS:      17293
L1D PREFETCH  ACCESS:          0  HIT:          0  MISS:          0
L1D WRITEBACK ACCESS:          0  HIT:          0  MISS:          0
L1D PREFETCH  REQUESTED:          0  ISSUED:          0  USEFUL:          0  USELESS:          0
L1D AVERAGE MISS LATENCY: 168.52 cycles
L1I TOTAL     ACCESS:  156850587  HIT:  156850310  MISS:        277
L1I LOAD      ACCESS:  156850587  HIT:  156850310  MISS:        277
L1I RFO       ACCESS:          0  HIT:          0  MISS:          0
L1I PREFETCH  ACCESS:          0  HIT:          0  MISS:          0
L1I WRITEBACK ACCESS:          0  HIT:          0  MISS:          0
L1I PREFETCH  REQUESTED:          0  ISSUED:          0  USEFUL:          0  USELESS:          0
L1I AVERAGE MISS LATENCY: 225.617 cycles
L2C TOTAL     ACCESS:   21948149  HIT:    8786117  MISS:   13162032
L2C LOAD      ACCESS:   13174201  HIT:      26288  MISS:   13147913
L2C RFO       ACCESS:      17293  HIT:       3174  MISS:      14119
L2C PREFETCH  ACCESS:          0  HIT:          0  MISS:          0
L2C WRITEBACK ACCESS:    8756655  HIT:    8756655  MISS:          0
L2C PREFETCH  REQUESTED:          0  ISSUED:          0  USEFUL:          0  USELESS:          0
L2C AVERAGE MISS LATENCY: 156.806 cycles
LLC TOTAL     ACCESS:   21912354  HIT:    4461651  MISS:   17450703
LLC LOAD      ACCESS:   13147912  HIT:    4388355  MISS:    8759557
LLC RFO       ACCESS:      14119  HIT:      14113  MISS:          6
LLC PREFETCH  ACCESS:          0  HIT:          0  MISS:          0
LLC WRITEBACK ACCESS:    8750323  HIT:      59183  MISS:    8691140
LLC PREFETCH  REQUESTED:          0  ISSUED:          0  USEFUL:          0  USELESS:          0
LLC AVERAGE MISS LATENCY: 88.0179 cycles
Major fault: 0 Minor fault: 150551
==============================
Perceptron RRIP Stats:
   Num Updates:          775586
   Num Primary Trains:   17
   Num Secondary Trains: 26
==============================
primary_perceptron #0: 1 1 -1 1 1 -1 -1 1 -1 1 -1 -1 1 -1 -1 -13 
secondary_perceptron #0: 0 0 0 0 -2 0 0 0 0 0 0 0 0 0 0 0 0 0 0 0 -18 


DRAM Statistics
 CHANNEL 0
 RQ ROW_BUFFER_HIT:     676018  ROW_BUFFER_MISS:    8083545
 DBUS_CONGESTED:    3472239
 WQ ROW_BUFFER_HIT:    5540223  ROW_BUFFER_MISS:    3194818  FULL:          0

 AVG_CONGESTED_CYCLE: 6

CPU 0 Branch Prediction Accuracy: 99.8879% MPKI: 0.020211 Average ROB Occupancy at Mispredict: 146.29

Branch types
NOT_BRANCH: 981968651 98.1969%
BRANCH_DIRECT_JUMP: 75894 0.0075894%
BRANCH_INDIRECT: 0 0%
BRANCH_CONDITIONAL: 17834435 1.78344%
BRANCH_DIRECT_CALL: 60502 0.0060502%
BRANCH_INDIRECT_CALL: 0 0%
BRANCH_RETURN: 60502 0.0060502%
BRANCH_OTHER: 0 0%

