
*** ChampSim Multicore Out-of-Order Simulator ***

Warmup Instructions: 100000000
Simulation Instructions: 1000000000
Number of CPUs: 1
LLC sets: 2048
LLC ways: 16
Off-chip DRAM Size: 4096 MB Channels: 1 Width: 64-bit Data Rate: 3200 MT/s

CPU 0 runs /scratch/user/kevin.weston/dpc3-traces/649.champsimtrace.xz
CPU 0 Bimodal branch predictor
Initialize SRRIP state
Heartbeat CPU 0 instructions: 10000000 cycles: 4077865 heartbeat IPC: 2.45226 cumulative IPC: 2.45226 (Simulation time: 0 hr 0 min 22 sec) 
Heartbeat CPU 0 instructions: 20000000 cycles: 8155567 heartbeat IPC: 2.45236 cumulative IPC: 2.45231 (Simulation time: 0 hr 0 min 45 sec) 
Heartbeat CPU 0 instructions: 30000000 cycles: 12233342 heartbeat IPC: 2.45232 cumulative IPC: 2.45231 (Simulation time: 0 hr 1 min 7 sec) 
Heartbeat CPU 0 instructions: 40000003 cycles: 16311084 heartbeat IPC: 2.45234 cumulative IPC: 2.45232 (Simulation time: 0 hr 1 min 30 sec) 
Heartbeat CPU 0 instructions: 50000002 cycles: 20388806 heartbeat IPC: 2.45235 cumulative IPC: 2.45233 (Simulation time: 0 hr 1 min 52 sec) 
Heartbeat CPU 0 instructions: 60000003 cycles: 24466680 heartbeat IPC: 2.45226 cumulative IPC: 2.45231 (Simulation time: 0 hr 2 min 14 sec) 
Heartbeat CPU 0 instructions: 70000003 cycles: 28544427 heartbeat IPC: 2.45233 cumulative IPC: 2.45232 (Simulation time: 0 hr 2 min 37 sec) 
Heartbeat CPU 0 instructions: 80000003 cycles: 32622185 heartbeat IPC: 2.45233 cumulative IPC: 2.45232 (Simulation time: 0 hr 2 min 59 sec) 
Heartbeat CPU 0 instructions: 90000003 cycles: 36700023 heartbeat IPC: 2.45228 cumulative IPC: 2.45231 (Simulation time: 0 hr 3 min 22 sec) 
Heartbeat CPU 0 instructions: 100000003 cycles: 40777769 heartbeat IPC: 2.45234 cumulative IPC: 2.45232 (Simulation time: 0 hr 3 min 44 sec) 

Warmup complete CPU 0 instructions: 100000003 cycles: 40777769 (Simulation time: 0 hr 3 min 44 sec) 

Heartbeat CPU 0 instructions: 110000000 cycles: 58472083 heartbeat IPC: 0.565153 cumulative IPC: 0.565153 (Simulation time: 0 hr 4 min 13 sec) 
Heartbeat CPU 0 instructions: 120000001 cycles: 76177605 heartbeat IPC: 0.564796 cumulative IPC: 0.564974 (Simulation time: 0 hr 4 min 41 sec) 
Heartbeat CPU 0 instructions: 130000003 cycles: 93849785 heartbeat IPC: 0.565861 cumulative IPC: 0.56527 (Simulation time: 0 hr 5 min 10 sec) 
Heartbeat CPU 0 instructions: 140000003 cycles: 111537962 heartbeat IPC: 0.565349 cumulative IPC: 0.56529 (Simulation time: 0 hr 5 min 38 sec) 
Heartbeat CPU 0 instructions: 150000001 cycles: 129217579 heartbeat IPC: 0.565623 cumulative IPC: 0.565356 (Simulation time: 0 hr 6 min 7 sec) 
Heartbeat CPU 0 instructions: 160000003 cycles: 146907074 heartbeat IPC: 0.565307 cumulative IPC: 0.565348 (Simulation time: 0 hr 6 min 36 sec) 
Heartbeat CPU 0 instructions: 170000002 cycles: 164606625 heartbeat IPC: 0.564986 cumulative IPC: 0.565296 (Simulation time: 0 hr 7 min 4 sec) 
Heartbeat CPU 0 instructions: 180000001 cycles: 182298840 heartbeat IPC: 0.56522 cumulative IPC: 0.565287 (Simulation time: 0 hr 7 min 33 sec) 
Heartbeat CPU 0 instructions: 190000001 cycles: 200011662 heartbeat IPC: 0.564563 cumulative IPC: 0.565206 (Simulation time: 0 hr 8 min 2 sec) 
Heartbeat CPU 0 instructions: 200000003 cycles: 217732053 heartbeat IPC: 0.564322 cumulative IPC: 0.565118 (Simulation time: 0 hr 8 min 30 sec) 
Heartbeat CPU 0 instructions: 210000003 cycles: 235426978 heartbeat IPC: 0.565134 cumulative IPC: 0.565119 (Simulation time: 0 hr 8 min 59 sec) 
Heartbeat CPU 0 instructions: 220000000 cycles: 253119185 heartbeat IPC: 0.56522 cumulative IPC: 0.565128 (Simulation time: 0 hr 9 min 28 sec) 
Heartbeat CPU 0 instructions: 230000002 cycles: 270806607 heartbeat IPC: 0.565374 cumulative IPC: 0.565147 (Simulation time: 0 hr 9 min 56 sec) 
Heartbeat CPU 0 instructions: 240000003 cycles: 288516044 heartbeat IPC: 0.564671 cumulative IPC: 0.565113 (Simulation time: 0 hr 10 min 25 sec) 
Heartbeat CPU 0 instructions: 250000000 cycles: 306223525 heartbeat IPC: 0.564733 cumulative IPC: 0.565087 (Simulation time: 0 hr 10 min 54 sec) 
Heartbeat CPU 0 instructions: 260000000 cycles: 323886203 heartbeat IPC: 0.566166 cumulative IPC: 0.565154 (Simulation time: 0 hr 11 min 22 sec) 
Heartbeat CPU 0 instructions: 270000002 cycles: 340368425 heartbeat IPC: 0.606714 cumulative IPC: 0.567441 (Simulation time: 0 hr 11 min 50 sec) 
Heartbeat CPU 0 instructions: 280000003 cycles: 356015537 heartbeat IPC: 0.639096 cumulative IPC: 0.570998 (Simulation time: 0 hr 12 min 16 sec) 
Heartbeat CPU 0 instructions: 290000000 cycles: 373720384 heartbeat IPC: 0.564817 cumulative IPC: 0.570669 (Simulation time: 0 hr 12 min 45 sec) 
Heartbeat CPU 0 instructions: 300000003 cycles: 391406135 heartbeat IPC: 0.565427 cumulative IPC: 0.570405 (Simulation time: 0 hr 13 min 13 sec) 
Heartbeat CPU 0 instructions: 310000000 cycles: 409078730 heartbeat IPC: 0.565848 cumulative IPC: 0.570186 (Simulation time: 0 hr 13 min 42 sec) 
Heartbeat CPU 0 instructions: 320000000 cycles: 426765087 heartbeat IPC: 0.565408 cumulative IPC: 0.569967 (Simulation time: 0 hr 14 min 11 sec) 
Heartbeat CPU 0 instructions: 330000000 cycles: 444461530 heartbeat IPC: 0.565085 cumulative IPC: 0.569753 (Simulation time: 0 hr 14 min 40 sec) 
Heartbeat CPU 0 instructions: 340000002 cycles: 462160317 heartbeat IPC: 0.565011 cumulative IPC: 0.569554 (Simulation time: 0 hr 15 min 9 sec) 
Heartbeat CPU 0 instructions: 350000003 cycles: 479851471 heartbeat IPC: 0.565254 cumulative IPC: 0.56938 (Simulation time: 0 hr 15 min 38 sec) 
Heartbeat CPU 0 instructions: 360000001 cycles: 497546595 heartbeat IPC: 0.565127 cumulative IPC: 0.569216 (Simulation time: 0 hr 16 min 6 sec) 
Heartbeat CPU 0 instructions: 370000001 cycles: 515254353 heartbeat IPC: 0.564724 cumulative IPC: 0.569048 (Simulation time: 0 hr 16 min 35 sec) 
Heartbeat CPU 0 instructions: 380000001 cycles: 532936849 heartbeat IPC: 0.565531 cumulative IPC: 0.568922 (Simulation time: 0 hr 17 min 4 sec) 
Heartbeat CPU 0 instructions: 390000003 cycles: 550623480 heartbeat IPC: 0.565399 cumulative IPC: 0.5688 (Simulation time: 0 hr 17 min 33 sec) 
Heartbeat CPU 0 instructions: 400000001 cycles: 568309158 heartbeat IPC: 0.565429 cumulative IPC: 0.568687 (Simulation time: 0 hr 18 min 2 sec) 
Heartbeat CPU 0 instructions: 410000001 cycles: 586008058 heartbeat IPC: 0.565007 cumulative IPC: 0.568567 (Simulation time: 0 hr 18 min 31 sec) 
Heartbeat CPU 0 instructions: 420000003 cycles: 603718893 heartbeat IPC: 0.564626 cumulative IPC: 0.568443 (Simulation time: 0 hr 19 min 0 sec) 
Heartbeat CPU 0 instructions: 430000003 cycles: 621421906 heartbeat IPC: 0.564876 cumulative IPC: 0.568334 (Simulation time: 0 hr 19 min 29 sec) 
Heartbeat CPU 0 instructions: 440000000 cycles: 639123419 heartbeat IPC: 0.564923 cumulative IPC: 0.568233 (Simulation time: 0 hr 19 min 57 sec) 
Heartbeat CPU 0 instructions: 450000003 cycles: 656811018 heartbeat IPC: 0.565368 cumulative IPC: 0.568151 (Simulation time: 0 hr 20 min 26 sec) 
Heartbeat CPU 0 instructions: 460000000 cycles: 674516562 heartbeat IPC: 0.564795 cumulative IPC: 0.568057 (Simulation time: 0 hr 20 min 55 sec) 
Heartbeat CPU 0 instructions: 470000000 cycles: 692213794 heartbeat IPC: 0.56506 cumulative IPC: 0.567976 (Simulation time: 0 hr 21 min 24 sec) 
Heartbeat CPU 0 instructions: 480000002 cycles: 709914393 heartbeat IPC: 0.564953 cumulative IPC: 0.567896 (Simulation time: 0 hr 21 min 53 sec) 
Heartbeat CPU 0 instructions: 490000002 cycles: 727603842 heartbeat IPC: 0.565309 cumulative IPC: 0.567829 (Simulation time: 0 hr 22 min 22 sec) 
Heartbeat CPU 0 instructions: 500000003 cycles: 745299849 heartbeat IPC: 0.565099 cumulative IPC: 0.567761 (Simulation time: 0 hr 22 min 51 sec) 
Heartbeat CPU 0 instructions: 510000000 cycles: 762997499 heartbeat IPC: 0.565047 cumulative IPC: 0.567694 (Simulation time: 0 hr 23 min 19 sec) 
Heartbeat CPU 0 instructions: 520000002 cycles: 780704537 heartbeat IPC: 0.564747 cumulative IPC: 0.567624 (Simulation time: 0 hr 23 min 48 sec) 
Heartbeat CPU 0 instructions: 530000000 cycles: 798410646 heartbeat IPC: 0.564777 cumulative IPC: 0.567557 (Simulation time: 0 hr 24 min 17 sec) 
Heartbeat CPU 0 instructions: 540000000 cycles: 816112260 heartbeat IPC: 0.56492 cumulative IPC: 0.567497 (Simulation time: 0 hr 24 min 46 sec) 
Heartbeat CPU 0 instructions: 550000000 cycles: 833798560 heartbeat IPC: 0.565409 cumulative IPC: 0.56745 (Simulation time: 0 hr 25 min 15 sec) 
Heartbeat CPU 0 instructions: 560000001 cycles: 851488530 heartbeat IPC: 0.565292 cumulative IPC: 0.567403 (Simulation time: 0 hr 25 min 44 sec) 
Heartbeat CPU 0 instructions: 570000003 cycles: 869166899 heartbeat IPC: 0.565663 cumulative IPC: 0.567366 (Simulation time: 0 hr 26 min 13 sec) 
Heartbeat CPU 0 instructions: 580000003 cycles: 886855396 heartbeat IPC: 0.565339 cumulative IPC: 0.567324 (Simulation time: 0 hr 26 min 41 sec) 
Heartbeat CPU 0 instructions: 590000001 cycles: 904559748 heartbeat IPC: 0.564833 cumulative IPC: 0.567273 (Simulation time: 0 hr 27 min 10 sec) 
Heartbeat CPU 0 instructions: 600000001 cycles: 922259436 heartbeat IPC: 0.564982 cumulative IPC: 0.567227 (Simulation time: 0 hr 27 min 39 sec) 
Heartbeat CPU 0 instructions: 610000001 cycles: 939954351 heartbeat IPC: 0.565134 cumulative IPC: 0.567186 (Simulation time: 0 hr 28 min 8 sec) 
Heartbeat CPU 0 instructions: 620000001 cycles: 957660770 heartbeat IPC: 0.564767 cumulative IPC: 0.567139 (Simulation time: 0 hr 28 min 37 sec) 
Heartbeat CPU 0 instructions: 630000001 cycles: 975364394 heartbeat IPC: 0.564856 cumulative IPC: 0.567096 (Simulation time: 0 hr 29 min 6 sec) 
Heartbeat CPU 0 instructions: 640000003 cycles: 993060872 heartbeat IPC: 0.565084 cumulative IPC: 0.567058 (Simulation time: 0 hr 29 min 35 sec) 
Heartbeat CPU 0 instructions: 650000003 cycles: 1010761485 heartbeat IPC: 0.564952 cumulative IPC: 0.56702 (Simulation time: 0 hr 30 min 4 sec) 
Heartbeat CPU 0 instructions: 660000000 cycles: 1028464464 heartbeat IPC: 0.564876 cumulative IPC: 0.566981 (Simulation time: 0 hr 30 min 33 sec) 
Heartbeat CPU 0 instructions: 670000002 cycles: 1046157456 heartbeat IPC: 0.565196 cumulative IPC: 0.56695 (Simulation time: 0 hr 31 min 2 sec) 
Heartbeat CPU 0 instructions: 680000003 cycles: 1063858407 heartbeat IPC: 0.564941 cumulative IPC: 0.566915 (Simulation time: 0 hr 31 min 30 sec) 
Heartbeat CPU 0 instructions: 690000000 cycles: 1081557759 heartbeat IPC: 0.564992 cumulative IPC: 0.566883 (Simulation time: 0 hr 31 min 59 sec) 
Heartbeat CPU 0 instructions: 700000000 cycles: 1099257683 heartbeat IPC: 0.564974 cumulative IPC: 0.566851 (Simulation time: 0 hr 32 min 28 sec) 
Heartbeat CPU 0 instructions: 710000002 cycles: 1116948812 heartbeat IPC: 0.565255 cumulative IPC: 0.566824 (Simulation time: 0 hr 32 min 57 sec) 
Heartbeat CPU 0 instructions: 720000002 cycles: 1134652457 heartbeat IPC: 0.564855 cumulative IPC: 0.566793 (Simulation time: 0 hr 33 min 26 sec) 
Heartbeat CPU 0 instructions: 730000000 cycles: 1152344363 heartbeat IPC: 0.56523 cumulative IPC: 0.566768 (Simulation time: 0 hr 33 min 55 sec) 
Heartbeat CPU 0 instructions: 740000000 cycles: 1170036226 heartbeat IPC: 0.565232 cumulative IPC: 0.566744 (Simulation time: 0 hr 34 min 24 sec) 
Heartbeat CPU 0 instructions: 750000002 cycles: 1187729839 heartbeat IPC: 0.565176 cumulative IPC: 0.566719 (Simulation time: 0 hr 34 min 53 sec) 
Heartbeat CPU 0 instructions: 760000002 cycles: 1205413454 heartbeat IPC: 0.565495 cumulative IPC: 0.566701 (Simulation time: 0 hr 35 min 21 sec) 
Heartbeat CPU 0 instructions: 770000000 cycles: 1223113839 heartbeat IPC: 0.564959 cumulative IPC: 0.566675 (Simulation time: 0 hr 35 min 50 sec) 
Heartbeat CPU 0 instructions: 780000002 cycles: 1240802912 heartbeat IPC: 0.565321 cumulative IPC: 0.566655 (Simulation time: 0 hr 36 min 19 sec) 
Heartbeat CPU 0 instructions: 790000003 cycles: 1258487269 heartbeat IPC: 0.565472 cumulative IPC: 0.566638 (Simulation time: 0 hr 36 min 48 sec) 
Heartbeat CPU 0 instructions: 800000003 cycles: 1276196552 heartbeat IPC: 0.564676 cumulative IPC: 0.56661 (Simulation time: 0 hr 37 min 17 sec) 
Heartbeat CPU 0 instructions: 810000001 cycles: 1293885979 heartbeat IPC: 0.565309 cumulative IPC: 0.566591 (Simulation time: 0 hr 37 min 46 sec) 
Heartbeat CPU 0 instructions: 820000001 cycles: 1311582954 heartbeat IPC: 0.565068 cumulative IPC: 0.56657 (Simulation time: 0 hr 38 min 15 sec) 
Heartbeat CPU 0 instructions: 830000001 cycles: 1329282681 heartbeat IPC: 0.56498 cumulative IPC: 0.566548 (Simulation time: 0 hr 38 min 44 sec) 
Heartbeat CPU 0 instructions: 840000002 cycles: 1346986418 heartbeat IPC: 0.564853 cumulative IPC: 0.566525 (Simulation time: 0 hr 39 min 13 sec) 
Heartbeat CPU 0 instructions: 850000001 cycles: 1364691410 heartbeat IPC: 0.564812 cumulative IPC: 0.566502 (Simulation time: 0 hr 39 min 41 sec) 
Heartbeat CPU 0 instructions: 860000001 cycles: 1382375355 heartbeat IPC: 0.565485 cumulative IPC: 0.566489 (Simulation time: 0 hr 40 min 10 sec) 
Heartbeat CPU 0 instructions: 870000003 cycles: 1400071463 heartbeat IPC: 0.565096 cumulative IPC: 0.566471 (Simulation time: 0 hr 40 min 39 sec) 
Heartbeat CPU 0 instructions: 880000000 cycles: 1417782091 heartbeat IPC: 0.564633 cumulative IPC: 0.566447 (Simulation time: 0 hr 41 min 8 sec) 
Heartbeat CPU 0 instructions: 890000000 cycles: 1435482062 heartbeat IPC: 0.564973 cumulative IPC: 0.566428 (Simulation time: 0 hr 41 min 37 sec) 
Heartbeat CPU 0 instructions: 900000002 cycles: 1453169678 heartbeat IPC: 0.565367 cumulative IPC: 0.566415 (Simulation time: 0 hr 42 min 6 sec) 
Heartbeat CPU 0 instructions: 910000001 cycles: 1470887631 heartbeat IPC: 0.564399 cumulative IPC: 0.56639 (Simulation time: 0 hr 42 min 35 sec) 
Heartbeat CPU 0 instructions: 920000000 cycles: 1488590464 heartbeat IPC: 0.564881 cumulative IPC: 0.566372 (Simulation time: 0 hr 43 min 4 sec) 
Heartbeat CPU 0 instructions: 930000000 cycles: 1506279582 heartbeat IPC: 0.565319 cumulative IPC: 0.566359 (Simulation time: 0 hr 43 min 33 sec) 
Heartbeat CPU 0 instructions: 940000000 cycles: 1523978488 heartbeat IPC: 0.565007 cumulative IPC: 0.566343 (Simulation time: 0 hr 44 min 1 sec) 
Heartbeat CPU 0 instructions: 950000000 cycles: 1541678893 heartbeat IPC: 0.564959 cumulative IPC: 0.566326 (Simulation time: 0 hr 44 min 30 sec) 
Heartbeat CPU 0 instructions: 960000000 cycles: 1559387452 heartbeat IPC: 0.564699 cumulative IPC: 0.566307 (Simulation time: 0 hr 44 min 59 sec) 
Heartbeat CPU 0 instructions: 970000002 cycles: 1577069437 heartbeat IPC: 0.565547 cumulative IPC: 0.566299 (Simulation time: 0 hr 45 min 28 sec) 
Heartbeat CPU 0 instructions: 980000002 cycles: 1594764571 heartbeat IPC: 0.565127 cumulative IPC: 0.566285 (Simulation time: 0 hr 45 min 57 sec) 
Heartbeat CPU 0 instructions: 990000000 cycles: 1612471495 heartbeat IPC: 0.564751 cumulative IPC: 0.566268 (Simulation time: 0 hr 46 min 26 sec) 
Heartbeat CPU 0 instructions: 1000000001 cycles: 1630169109 heartbeat IPC: 0.565048 cumulative IPC: 0.566254 (Simulation time: 0 hr 46 min 55 sec) 
Heartbeat CPU 0 instructions: 1010000002 cycles: 1647859595 heartbeat IPC: 0.565276 cumulative IPC: 0.566244 (Simulation time: 0 hr 47 min 24 sec) 
Heartbeat CPU 0 instructions: 1020000003 cycles: 1665555200 heartbeat IPC: 0.565112 cumulative IPC: 0.566231 (Simulation time: 0 hr 47 min 53 sec) 
Heartbeat CPU 0 instructions: 1030000003 cycles: 1683239826 heartbeat IPC: 0.565463 cumulative IPC: 0.566223 (Simulation time: 0 hr 48 min 21 sec) 
Heartbeat CPU 0 instructions: 1040000001 cycles: 1700951559 heartbeat IPC: 0.564597 cumulative IPC: 0.566206 (Simulation time: 0 hr 48 min 50 sec) 
Heartbeat CPU 0 instructions: 1050000001 cycles: 1718655658 heartbeat IPC: 0.564841 cumulative IPC: 0.566191 (Simulation time: 0 hr 49 min 19 sec) 
Heartbeat CPU 0 instructions: 1060000002 cycles: 1736351824 heartbeat IPC: 0.565094 cumulative IPC: 0.56618 (Simulation time: 0 hr 49 min 48 sec) 
Heartbeat CPU 0 instructions: 1070000002 cycles: 1754045089 heartbeat IPC: 0.565187 cumulative IPC: 0.56617 (Simulation time: 0 hr 50 min 17 sec) 
Heartbeat CPU 0 instructions: 1080000001 cycles: 1771744438 heartbeat IPC: 0.564992 cumulative IPC: 0.566158 (Simulation time: 0 hr 50 min 46 sec) 
Heartbeat CPU 0 instructions: 1090000001 cycles: 1789441977 heartbeat IPC: 0.56505 cumulative IPC: 0.566146 (Simulation time: 0 hr 51 min 15 sec) 
Heartbeat CPU 0 instructions: 1100000000 cycles: 1807141842 heartbeat IPC: 0.564976 cumulative IPC: 0.566135 (Simulation time: 0 hr 51 min 44 sec) 
Finished CPU 0 instructions: 1000000000 cycles: 1766364075 cumulative IPC: 0.566135 (Simulation time: 0 hr 51 min 44 sec) 

ChampSim completed all CPUs

Region of Interest Statistics

CPU 0 cumulative IPC: 0.566135 instructions: 1000000000 cycles: 1766364075
L1D TOTAL     ACCESS:  200892758  HIT:  187701541  MISS:   13191217
L1D LOAD      ACCESS:  130617795  HIT:  117443871  MISS:   13173924
L1D RFO       ACCESS:   70274963  HIT:   70257670  MISS:      17293
L1D PREFETCH  ACCESS:          0  HIT:          0  MISS:          0
L1D WRITEBACK ACCESS:          0  HIT:          0  MISS:          0
L1D PREFETCH  REQUESTED:          0  ISSUED:          0  USEFUL:          0  USELESS:          0
L1D AVERAGE MISS LATENCY: 169.346 cycles
L1I TOTAL     ACCESS:  156917161  HIT:  156916884  MISS:        277
L1I LOAD      ACCESS:  156917161  HIT:  156916884  MISS:        277
L1I RFO       ACCESS:          0  HIT:          0  MISS:          0
L1I PREFETCH  ACCESS:          0  HIT:          0  MISS:          0
L1I WRITEBACK ACCESS:          0  HIT:          0  MISS:          0
L1I PREFETCH  REQUESTED:          0  ISSUED:          0  USEFUL:          0  USELESS:          0
L1I AVERAGE MISS LATENCY: 234.675 cycles
L2C TOTAL     ACCESS:   21948149  HIT:    8773144  MISS:   13175005
L2C LOAD      ACCESS:   13174201  HIT:      13287  MISS:   13160914
L2C RFO       ACCESS:      17293  HIT:       3202  MISS:      14091
L2C PREFETCH  ACCESS:          0  HIT:          0  MISS:          0
L2C WRITEBACK ACCESS:    8756655  HIT:    8756655  MISS:          0
L2C PREFETCH  REQUESTED:          0  ISSUED:          0  USEFUL:          0  USELESS:          0
L2C AVERAGE MISS LATENCY: 157.48 cycles
LLC TOTAL     ACCESS:   21925126  HIT:   12458262  MISS:    9466864
LLC LOAD      ACCESS:   13160914  HIT:    4419033  MISS:    8741881
LLC RFO       ACCESS:      14091  HIT:      14085  MISS:          6
LLC PREFETCH  ACCESS:          0  HIT:          0  MISS:          0
LLC WRITEBACK ACCESS:    8750121  HIT:    8025144  MISS:     724977
LLC PREFETCH  REQUESTED:          0  ISSUED:          0  USEFUL:          0  USELESS:          0
LLC AVERAGE MISS LATENCY: 163.345 cycles
Major fault: 0 Minor fault: 150551

DRAM Statistics
 CHANNEL 0
 RQ ROW_BUFFER_HIT:     537981  ROW_BUFFER_MISS:    8203905
 DBUS_CONGESTED:    3287316
 WQ ROW_BUFFER_HIT:    5450459  ROW_BUFFER_MISS:    3285295  FULL:          0

 AVG_CONGESTED_CYCLE: 6

CPU 0 Branch Prediction Accuracy: 99.8879% MPKI: 0.020211 Average ROB Occupancy at Mispredict: 146.246

Branch types
NOT_BRANCH: 981968651 98.1969%
BRANCH_DIRECT_JUMP: 75894 0.0075894%
BRANCH_INDIRECT: 0 0%
BRANCH_CONDITIONAL: 17834435 1.78344%
BRANCH_DIRECT_CALL: 60502 0.0060502%
BRANCH_INDIRECT_CALL: 0 0%
BRANCH_RETURN: 60502 0.0060502%
BRANCH_OTHER: 0 0%

