
*** ChampSim Multicore Out-of-Order Simulator ***

Warmup Instructions: 100000000
Simulation Instructions: 1000000000
Number of CPUs: 1
LLC sets: 2048
LLC ways: 16
Off-chip DRAM Size: 4096 MB Channels: 1 Width: 64-bit Data Rate: 3200 MT/s

CPU 0 runs /scratch/user/kevin.weston/dpc3-traces/649.champsimtrace.xz
CPU 0 Bimodal branch predictor
Initialize SHIP state
Assign rand_sets[0]: 454  LLC: 2048
rand_sets[0]: 454
Assign rand_sets[1]: 1662  LLC: 2048
rand_sets[1]: 1662
Assign rand_sets[2]: 1921  LLC: 2048
rand_sets[2]: 1921
Assign rand_sets[3]: 1131  LLC: 2048
rand_sets[3]: 1131
Assign rand_sets[4]: 331  LLC: 2048
rand_sets[4]: 331
Assign rand_sets[5]: 1531  LLC: 2048
rand_sets[5]: 1531
Assign rand_sets[6]: 482  LLC: 2048
rand_sets[6]: 482
Assign rand_sets[7]: 1275  LLC: 2048
rand_sets[7]: 1275
Assign rand_sets[8]: 1876  LLC: 2048
rand_sets[8]: 1876
Assign rand_sets[9]: 2038  LLC: 2048
rand_sets[9]: 2038
Assign rand_sets[10]: 701  LLC: 2048
rand_sets[10]: 701
Assign rand_sets[11]: 479  LLC: 2048
rand_sets[11]: 479
Assign rand_sets[12]: 892  LLC: 2048
rand_sets[12]: 892
Assign rand_sets[13]: 1820  LLC: 2048
rand_sets[13]: 1820
Assign rand_sets[14]: 1505  LLC: 2048
rand_sets[14]: 1505
Assign rand_sets[15]: 1159  LLC: 2048
rand_sets[15]: 1159
Assign rand_sets[16]: 513  LLC: 2048
rand_sets[16]: 513
Assign rand_sets[17]: 703  LLC: 2048
rand_sets[17]: 703
Assign rand_sets[18]: 561  LLC: 2048
rand_sets[18]: 561
Assign rand_sets[19]: 990  LLC: 2048
rand_sets[19]: 990
Assign rand_sets[20]: 342  LLC: 2048
rand_sets[20]: 342
Assign rand_sets[21]: 882  LLC: 2048
rand_sets[21]: 882
Assign rand_sets[22]: 15  LLC: 2048
rand_sets[22]: 15
Assign rand_sets[23]: 71  LLC: 2048
rand_sets[23]: 71
Assign rand_sets[24]: 1127  LLC: 2048
rand_sets[24]: 1127
Assign rand_sets[25]: 1382  LLC: 2048
rand_sets[25]: 1382
Assign rand_sets[26]: 647  LLC: 2048
rand_sets[26]: 647
Assign rand_sets[27]: 857  LLC: 2048
rand_sets[27]: 857
Assign rand_sets[28]: 1450  LLC: 2048
rand_sets[28]: 1450
Assign rand_sets[29]: 1160  LLC: 2048
rand_sets[29]: 1160
Assign rand_sets[30]: 1852  LLC: 2048
rand_sets[30]: 1852
Assign rand_sets[31]: 1881  LLC: 2048
rand_sets[31]: 1881
Assign rand_sets[32]: 1770  LLC: 2048
rand_sets[32]: 1770
Assign rand_sets[33]: 1622  LLC: 2048
rand_sets[33]: 1622
Assign rand_sets[34]: 275  LLC: 2048
rand_sets[34]: 275
Assign rand_sets[35]: 635  LLC: 2048
rand_sets[35]: 635
Assign rand_sets[36]: 466  LLC: 2048
rand_sets[36]: 466
Assign rand_sets[37]: 1413  LLC: 2048
rand_sets[37]: 1413
Assign rand_sets[38]: 417  LLC: 2048
rand_sets[38]: 417
Assign rand_sets[39]: 472  LLC: 2048
rand_sets[39]: 472
Assign rand_sets[40]: 1340  LLC: 2048
rand_sets[40]: 1340
Assign rand_sets[41]: 852  LLC: 2048
rand_sets[41]: 852
Assign rand_sets[42]: 1365  LLC: 2048
rand_sets[42]: 1365
Assign rand_sets[43]: 47  LLC: 2048
rand_sets[43]: 47
Assign rand_sets[44]: 823  LLC: 2048
rand_sets[44]: 823
Assign rand_sets[45]: 686  LLC: 2048
rand_sets[45]: 686
Assign rand_sets[46]: 1637  LLC: 2048
rand_sets[46]: 1637
Assign rand_sets[47]: 1115  LLC: 2048
rand_sets[47]: 1115
Assign rand_sets[48]: 986  LLC: 2048
rand_sets[48]: 986
Assign rand_sets[49]: 258  LLC: 2048
rand_sets[49]: 258
Assign rand_sets[50]: 633  LLC: 2048
rand_sets[50]: 633
Assign rand_sets[51]: 920  LLC: 2048
rand_sets[51]: 920
Assign rand_sets[52]: 204  LLC: 2048
rand_sets[52]: 204
Assign rand_sets[53]: 227  LLC: 2048
rand_sets[53]: 227
Assign rand_sets[54]: 1818  LLC: 2048
rand_sets[54]: 1818
Assign rand_sets[55]: 886  LLC: 2048
rand_sets[55]: 886
Assign rand_sets[56]: 1422  LLC: 2048
rand_sets[56]: 1422
Assign rand_sets[57]: 607  LLC: 2048
rand_sets[57]: 607
Assign rand_sets[58]: 217  LLC: 2048
rand_sets[58]: 217
Assign rand_sets[59]: 1945  LLC: 2048
rand_sets[59]: 1945
Assign rand_sets[60]: 143  LLC: 2048
rand_sets[60]: 143
Assign rand_sets[61]: 1311  LLC: 2048
rand_sets[61]: 1311
Assign rand_sets[62]: 319  LLC: 2048
rand_sets[62]: 319
Assign rand_sets[63]: 1846  LLC: 2048
rand_sets[63]: 1846
Assign rand_sets[64]: 238  LLC: 2048
rand_sets[64]: 238
Assign rand_sets[65]: 67  LLC: 2048
rand_sets[65]: 67
Assign rand_sets[66]: 1912  LLC: 2048
rand_sets[66]: 1912
Assign rand_sets[67]: 1613  LLC: 2048
rand_sets[67]: 1613
Assign rand_sets[68]: 1293  LLC: 2048
rand_sets[68]: 1293
Assign rand_sets[69]: 1018  LLC: 2048
rand_sets[69]: 1018
Assign rand_sets[70]: 1982  LLC: 2048
rand_sets[70]: 1982
Assign rand_sets[71]: 1702  LLC: 2048
rand_sets[71]: 1702
Assign rand_sets[72]: 1498  LLC: 2048
rand_sets[72]: 1498
Assign rand_sets[73]: 228  LLC: 2048
rand_sets[73]: 228
Assign rand_sets[74]: 1414  LLC: 2048
rand_sets[74]: 1414
Assign rand_sets[75]: 1166  LLC: 2048
rand_sets[75]: 1166
Assign rand_sets[76]: 732  LLC: 2048
rand_sets[76]: 732
Assign rand_sets[77]: 297  LLC: 2048
rand_sets[77]: 297
Assign rand_sets[78]: 1133  LLC: 2048
rand_sets[78]: 1133
Assign rand_sets[79]: 846  LLC: 2048
rand_sets[79]: 846
Assign rand_sets[80]: 767  LLC: 2048
rand_sets[80]: 767
Assign rand_sets[81]: 1878  LLC: 2048
rand_sets[81]: 1878
Assign rand_sets[82]: 993  LLC: 2048
rand_sets[82]: 993
Assign rand_sets[83]: 1392  LLC: 2048
rand_sets[83]: 1392
Assign rand_sets[84]: 1568  LLC: 2048
rand_sets[84]: 1568
Assign rand_sets[85]: 1787  LLC: 2048
rand_sets[85]: 1787
Assign rand_sets[86]: 399  LLC: 2048
rand_sets[86]: 399
Assign rand_sets[87]: 1201  LLC: 2048
rand_sets[87]: 1201
Assign rand_sets[88]: 856  LLC: 2048
rand_sets[88]: 856
Assign rand_sets[89]: 773  LLC: 2048
rand_sets[89]: 773
Assign rand_sets[90]: 1680  LLC: 2048
rand_sets[90]: 1680
Assign rand_sets[91]: 1477  LLC: 2048
rand_sets[91]: 1477
Assign rand_sets[92]: 9  LLC: 2048
rand_sets[92]: 9
Assign rand_sets[93]: 1500  LLC: 2048
rand_sets[93]: 1500
Assign rand_sets[94]: 851  LLC: 2048
rand_sets[94]: 851
Assign rand_sets[95]: 973  LLC: 2048
rand_sets[95]: 973
Assign rand_sets[96]: 938  LLC: 2048
rand_sets[96]: 938
Assign rand_sets[97]: 1851  LLC: 2048
rand_sets[97]: 1851
Assign rand_sets[98]: 1608  LLC: 2048
rand_sets[98]: 1608
Assign rand_sets[99]: 1945  LLC: 2048
Assign rand_sets[99]: 1106  LLC: 2048
rand_sets[99]: 1106
Assign rand_sets[100]: 979  LLC: 2048
rand_sets[100]: 979
Assign rand_sets[101]: 338  LLC: 2048
rand_sets[101]: 338
Assign rand_sets[102]: 1693  LLC: 2048
rand_sets[102]: 1693
Assign rand_sets[103]: 6  LLC: 2048
rand_sets[103]: 6
Assign rand_sets[104]: 671  LLC: 2048
rand_sets[104]: 671
Assign rand_sets[105]: 490  LLC: 2048
rand_sets[105]: 490
Assign rand_sets[106]: 1461  LLC: 2048
rand_sets[106]: 1461
Assign rand_sets[107]: 1730  LLC: 2048
rand_sets[107]: 1730
Assign rand_sets[108]: 1030  LLC: 2048
rand_sets[108]: 1030
Assign rand_sets[109]: 19  LLC: 2048
rand_sets[109]: 19
Assign rand_sets[110]: 920  LLC: 2048
Assign rand_sets[110]: 329  LLC: 2048
rand_sets[110]: 329
Assign rand_sets[111]: 1714  LLC: 2048
rand_sets[111]: 1714
Assign rand_sets[112]: 1  LLC: 2048
rand_sets[112]: 1
Assign rand_sets[113]: 1822  LLC: 2048
rand_sets[113]: 1822
Assign rand_sets[114]: 172  LLC: 2048
rand_sets[114]: 172
Assign rand_sets[115]: 1586  LLC: 2048
rand_sets[115]: 1586
Assign rand_sets[116]: 648  LLC: 2048
rand_sets[116]: 648
Assign rand_sets[117]: 1329  LLC: 2048
rand_sets[117]: 1329
Assign rand_sets[118]: 668  LLC: 2048
rand_sets[118]: 668
Assign rand_sets[119]: 1874  LLC: 2048
rand_sets[119]: 1874
Assign rand_sets[120]: 70  LLC: 2048
rand_sets[120]: 70
Assign rand_sets[121]: 661  LLC: 2048
rand_sets[121]: 661
Assign rand_sets[122]: 1649  LLC: 2048
rand_sets[122]: 1649
Assign rand_sets[123]: 1590  LLC: 2048
rand_sets[123]: 1590
Assign rand_sets[124]: 911  LLC: 2048
rand_sets[124]: 911
Assign rand_sets[125]: 1367  LLC: 2048
rand_sets[125]: 1367
Assign rand_sets[126]: 1782  LLC: 2048
rand_sets[126]: 1782
Assign rand_sets[127]: 569  LLC: 2048
rand_sets[127]: 569
Heartbeat CPU 0 instructions: 10000000 cycles: 4077792 heartbeat IPC: 2.45231 cumulative IPC: 2.45231 (Simulation time: 0 hr 0 min 22 sec) 
Heartbeat CPU 0 instructions: 20000000 cycles: 8155518 heartbeat IPC: 2.45235 cumulative IPC: 2.45233 (Simulation time: 0 hr 0 min 44 sec) 
Heartbeat CPU 0 instructions: 30000000 cycles: 12233291 heartbeat IPC: 2.45232 cumulative IPC: 2.45232 (Simulation time: 0 hr 1 min 5 sec) 
Heartbeat CPU 0 instructions: 40000003 cycles: 16311031 heartbeat IPC: 2.45234 cumulative IPC: 2.45233 (Simulation time: 0 hr 1 min 27 sec) 
Heartbeat CPU 0 instructions: 50000002 cycles: 20388733 heartbeat IPC: 2.45236 cumulative IPC: 2.45233 (Simulation time: 0 hr 1 min 49 sec) 
Heartbeat CPU 0 instructions: 60000003 cycles: 24466583 heartbeat IPC: 2.45227 cumulative IPC: 2.45232 (Simulation time: 0 hr 2 min 11 sec) 
Heartbeat CPU 0 instructions: 70000003 cycles: 28544331 heartbeat IPC: 2.45233 cumulative IPC: 2.45233 (Simulation time: 0 hr 2 min 33 sec) 
Heartbeat CPU 0 instructions: 80000003 cycles: 32622084 heartbeat IPC: 2.45233 cumulative IPC: 2.45233 (Simulation time: 0 hr 2 min 55 sec) 
Heartbeat CPU 0 instructions: 90000003 cycles: 36699914 heartbeat IPC: 2.45228 cumulative IPC: 2.45232 (Simulation time: 0 hr 3 min 17 sec) 
Heartbeat CPU 0 instructions: 100000003 cycles: 40777679 heartbeat IPC: 2.45232 cumulative IPC: 2.45232 (Simulation time: 0 hr 3 min 39 sec) 

Warmup complete CPU 0 instructions: 100000003 cycles: 40777679 (Simulation time: 0 hr 3 min 39 sec) 

Heartbeat CPU 0 instructions: 110000000 cycles: 58508806 heartbeat IPC: 0.56398 cumulative IPC: 0.56398 (Simulation time: 0 hr 4 min 8 sec) 
Heartbeat CPU 0 instructions: 120000001 cycles: 76063728 heartbeat IPC: 0.569641 cumulative IPC: 0.566796 (Simulation time: 0 hr 4 min 37 sec) 
Heartbeat CPU 0 instructions: 130000003 cycles: 93826267 heartbeat IPC: 0.562983 cumulative IPC: 0.565519 (Simulation time: 0 hr 5 min 6 sec) 
Heartbeat CPU 0 instructions: 140000003 cycles: 111244389 heartbeat IPC: 0.574115 cumulative IPC: 0.567644 (Simulation time: 0 hr 5 min 35 sec) 
Heartbeat CPU 0 instructions: 150000001 cycles: 129026293 heartbeat IPC: 0.562369 cumulative IPC: 0.566581 (Simulation time: 0 hr 6 min 5 sec) 
Heartbeat CPU 0 instructions: 160000003 cycles: 146632405 heartbeat IPC: 0.567985 cumulative IPC: 0.566815 (Simulation time: 0 hr 6 min 34 sec) 
Heartbeat CPU 0 instructions: 170000002 cycles: 164042387 heartbeat IPC: 0.574383 cumulative IPC: 0.567884 (Simulation time: 0 hr 7 min 3 sec) 
Heartbeat CPU 0 instructions: 180000001 cycles: 181689850 heartbeat IPC: 0.566654 cumulative IPC: 0.56773 (Simulation time: 0 hr 7 min 32 sec) 
Heartbeat CPU 0 instructions: 190000001 cycles: 199324859 heartbeat IPC: 0.567054 cumulative IPC: 0.567654 (Simulation time: 0 hr 8 min 1 sec) 
Heartbeat CPU 0 instructions: 200000003 cycles: 216917223 heartbeat IPC: 0.568429 cumulative IPC: 0.567732 (Simulation time: 0 hr 8 min 30 sec) 
Heartbeat CPU 0 instructions: 210000003 cycles: 234454950 heartbeat IPC: 0.570199 cumulative IPC: 0.567955 (Simulation time: 0 hr 9 min 0 sec) 
Heartbeat CPU 0 instructions: 220000000 cycles: 252137905 heartbeat IPC: 0.565516 cumulative IPC: 0.567751 (Simulation time: 0 hr 9 min 29 sec) 
Heartbeat CPU 0 instructions: 230000002 cycles: 269612066 heartbeat IPC: 0.572274 cumulative IPC: 0.568096 (Simulation time: 0 hr 9 min 58 sec) 
Heartbeat CPU 0 instructions: 240000003 cycles: 287267038 heartbeat IPC: 0.566413 cumulative IPC: 0.567976 (Simulation time: 0 hr 10 min 27 sec) 
Heartbeat CPU 0 instructions: 250000000 cycles: 304850316 heartbeat IPC: 0.568722 cumulative IPC: 0.568026 (Simulation time: 0 hr 10 min 57 sec) 
Heartbeat CPU 0 instructions: 260000000 cycles: 322414364 heartbeat IPC: 0.569345 cumulative IPC: 0.568108 (Simulation time: 0 hr 11 min 26 sec) 
Heartbeat CPU 0 instructions: 270000002 cycles: 338906746 heartbeat IPC: 0.606341 cumulative IPC: 0.570223 (Simulation time: 0 hr 11 min 53 sec) 
Heartbeat CPU 0 instructions: 280000003 cycles: 354513852 heartbeat IPC: 0.640734 cumulative IPC: 0.57373 (Simulation time: 0 hr 12 min 20 sec) 
Heartbeat CPU 0 instructions: 290000000 cycles: 372070304 heartbeat IPC: 0.569591 cumulative IPC: 0.573511 (Simulation time: 0 hr 12 min 50 sec) 
Heartbeat CPU 0 instructions: 300000003 cycles: 389588104 heartbeat IPC: 0.570848 cumulative IPC: 0.573377 (Simulation time: 0 hr 13 min 19 sec) 
Heartbeat CPU 0 instructions: 310000000 cycles: 407343659 heartbeat IPC: 0.563204 cumulative IPC: 0.572885 (Simulation time: 0 hr 13 min 49 sec) 
Heartbeat CPU 0 instructions: 320000000 cycles: 424956030 heartbeat IPC: 0.567783 cumulative IPC: 0.572651 (Simulation time: 0 hr 14 min 18 sec) 
Heartbeat CPU 0 instructions: 330000000 cycles: 442558927 heartbeat IPC: 0.568088 cumulative IPC: 0.572451 (Simulation time: 0 hr 14 min 48 sec) 
Heartbeat CPU 0 instructions: 340000002 cycles: 460234095 heartbeat IPC: 0.565766 cumulative IPC: 0.572169 (Simulation time: 0 hr 15 min 17 sec) 
Heartbeat CPU 0 instructions: 350000003 cycles: 477862915 heartbeat IPC: 0.567253 cumulative IPC: 0.571971 (Simulation time: 0 hr 15 min 47 sec) 
Heartbeat CPU 0 instructions: 360000001 cycles: 495560416 heartbeat IPC: 0.565051 cumulative IPC: 0.571702 (Simulation time: 0 hr 16 min 16 sec) 
Heartbeat CPU 0 instructions: 370000001 cycles: 513121486 heartbeat IPC: 0.569441 cumulative IPC: 0.571618 (Simulation time: 0 hr 16 min 46 sec) 
Heartbeat CPU 0 instructions: 380000001 cycles: 530842373 heartbeat IPC: 0.564306 cumulative IPC: 0.571353 (Simulation time: 0 hr 17 min 15 sec) 
Heartbeat CPU 0 instructions: 390000003 cycles: 548365769 heartbeat IPC: 0.570666 cumulative IPC: 0.571329 (Simulation time: 0 hr 17 min 45 sec) 
Heartbeat CPU 0 instructions: 400000001 cycles: 565998129 heartbeat IPC: 0.567139 cumulative IPC: 0.571189 (Simulation time: 0 hr 18 min 14 sec) 
Heartbeat CPU 0 instructions: 410000001 cycles: 583803002 heartbeat IPC: 0.561644 cumulative IPC: 0.570876 (Simulation time: 0 hr 18 min 44 sec) 
Heartbeat CPU 0 instructions: 420000003 cycles: 601364911 heartbeat IPC: 0.569414 cumulative IPC: 0.57083 (Simulation time: 0 hr 19 min 14 sec) 
Heartbeat CPU 0 instructions: 430000002 cycles: 618996390 heartbeat IPC: 0.567167 cumulative IPC: 0.570718 (Simulation time: 0 hr 19 min 43 sec) 
Heartbeat CPU 0 instructions: 440000000 cycles: 636696180 heartbeat IPC: 0.564978 cumulative IPC: 0.570548 (Simulation time: 0 hr 20 min 13 sec) 
Heartbeat CPU 0 instructions: 450000003 cycles: 654390839 heartbeat IPC: 0.565142 cumulative IPC: 0.570392 (Simulation time: 0 hr 20 min 42 sec) 
Heartbeat CPU 0 instructions: 460000000 cycles: 671958917 heartbeat IPC: 0.569214 cumulative IPC: 0.570359 (Simulation time: 0 hr 21 min 12 sec) 
Heartbeat CPU 0 instructions: 470000000 cycles: 689491504 heartbeat IPC: 0.570367 cumulative IPC: 0.570359 (Simulation time: 0 hr 21 min 41 sec) 
Heartbeat CPU 0 instructions: 480000002 cycles: 706941976 heartbeat IPC: 0.57305 cumulative IPC: 0.57043 (Simulation time: 0 hr 22 min 11 sec) 
Heartbeat CPU 0 instructions: 490000002 cycles: 724708631 heartbeat IPC: 0.562852 cumulative IPC: 0.570233 (Simulation time: 0 hr 22 min 40 sec) 
Heartbeat CPU 0 instructions: 500000003 cycles: 742357140 heartbeat IPC: 0.56662 cumulative IPC: 0.570142 (Simulation time: 0 hr 23 min 10 sec) 
Heartbeat CPU 0 instructions: 510000000 cycles: 759978778 heartbeat IPC: 0.567484 cumulative IPC: 0.570077 (Simulation time: 0 hr 23 min 39 sec) 
Heartbeat CPU 0 instructions: 520000002 cycles: 777509783 heartbeat IPC: 0.570418 cumulative IPC: 0.570085 (Simulation time: 0 hr 24 min 9 sec) 
Heartbeat CPU 0 instructions: 530000000 cycles: 795218659 heartbeat IPC: 0.564688 cumulative IPC: 0.569958 (Simulation time: 0 hr 24 min 39 sec) 
Heartbeat CPU 0 instructions: 540000000 cycles: 812811579 heartbeat IPC: 0.56841 cumulative IPC: 0.569923 (Simulation time: 0 hr 25 min 8 sec) 
Heartbeat CPU 0 instructions: 550000000 cycles: 830270350 heartbeat IPC: 0.572778 cumulative IPC: 0.569986 (Simulation time: 0 hr 25 min 38 sec) 
Heartbeat CPU 0 instructions: 560000001 cycles: 847742772 heartbeat IPC: 0.572331 cumulative IPC: 0.570037 (Simulation time: 0 hr 26 min 7 sec) 
Heartbeat CPU 0 instructions: 570000003 cycles: 865451369 heartbeat IPC: 0.564698 cumulative IPC: 0.569922 (Simulation time: 0 hr 26 min 37 sec) 
Heartbeat CPU 0 instructions: 580000003 cycles: 883047450 heartbeat IPC: 0.568308 cumulative IPC: 0.569889 (Simulation time: 0 hr 27 min 6 sec) 
Heartbeat CPU 0 instructions: 590000001 cycles: 900655086 heartbeat IPC: 0.567935 cumulative IPC: 0.569849 (Simulation time: 0 hr 27 min 36 sec) 
Heartbeat CPU 0 instructions: 600000001 cycles: 918385982 heartbeat IPC: 0.563987 cumulative IPC: 0.56973 (Simulation time: 0 hr 28 min 5 sec) 
Heartbeat CPU 0 instructions: 610000001 cycles: 936074518 heartbeat IPC: 0.565338 cumulative IPC: 0.569643 (Simulation time: 0 hr 28 min 35 sec) 
Heartbeat CPU 0 instructions: 620000001 cycles: 953771714 heartbeat IPC: 0.565061 cumulative IPC: 0.569555 (Simulation time: 0 hr 29 min 4 sec) 
Heartbeat CPU 0 instructions: 630000001 cycles: 971361345 heartbeat IPC: 0.568517 cumulative IPC: 0.569535 (Simulation time: 0 hr 29 min 34 sec) 
Heartbeat CPU 0 instructions: 640000003 cycles: 989006406 heartbeat IPC: 0.566731 cumulative IPC: 0.569483 (Simulation time: 0 hr 30 min 4 sec) 
Heartbeat CPU 0 instructions: 650000003 cycles: 1006695386 heartbeat IPC: 0.565324 cumulative IPC: 0.569407 (Simulation time: 0 hr 30 min 33 sec) 
Heartbeat CPU 0 instructions: 660000000 cycles: 1024307404 heartbeat IPC: 0.567794 cumulative IPC: 0.569378 (Simulation time: 0 hr 31 min 3 sec) 
Heartbeat CPU 0 instructions: 670000002 cycles: 1041963438 heartbeat IPC: 0.566379 cumulative IPC: 0.569325 (Simulation time: 0 hr 31 min 32 sec) 
Heartbeat CPU 0 instructions: 680000003 cycles: 1059648686 heartbeat IPC: 0.565443 cumulative IPC: 0.569258 (Simulation time: 0 hr 32 min 2 sec) 
Heartbeat CPU 0 instructions: 690000000 cycles: 1077263247 heartbeat IPC: 0.567712 cumulative IPC: 0.569231 (Simulation time: 0 hr 32 min 31 sec) 
Heartbeat CPU 0 instructions: 700000000 cycles: 1094847486 heartbeat IPC: 0.568691 cumulative IPC: 0.569222 (Simulation time: 0 hr 33 min 1 sec) 
Heartbeat CPU 0 instructions: 710000002 cycles: 1112532012 heartbeat IPC: 0.565466 cumulative IPC: 0.56916 (Simulation time: 0 hr 33 min 30 sec) 
Heartbeat CPU 0 instructions: 720000002 cycles: 1130140426 heartbeat IPC: 0.56791 cumulative IPC: 0.56914 (Simulation time: 0 hr 34 min 0 sec) 
Heartbeat CPU 0 instructions: 730000000 cycles: 1147854177 heartbeat IPC: 0.564533 cumulative IPC: 0.569066 (Simulation time: 0 hr 34 min 30 sec) 
Heartbeat CPU 0 instructions: 740000000 cycles: 1165391468 heartbeat IPC: 0.570213 cumulative IPC: 0.569084 (Simulation time: 0 hr 34 min 59 sec) 
Heartbeat CPU 0 instructions: 750000002 cycles: 1183037241 heartbeat IPC: 0.566708 cumulative IPC: 0.569048 (Simulation time: 0 hr 35 min 29 sec) 
Heartbeat CPU 0 instructions: 760000002 cycles: 1200662939 heartbeat IPC: 0.567353 cumulative IPC: 0.569022 (Simulation time: 0 hr 35 min 58 sec) 
Heartbeat CPU 0 instructions: 770000000 cycles: 1218171391 heartbeat IPC: 0.571153 cumulative IPC: 0.569053 (Simulation time: 0 hr 36 min 28 sec) 
Heartbeat CPU 0 instructions: 780000002 cycles: 1235680772 heartbeat IPC: 0.571123 cumulative IPC: 0.569084 (Simulation time: 0 hr 36 min 57 sec) 
Heartbeat CPU 0 instructions: 790000003 cycles: 1253296522 heartbeat IPC: 0.567674 cumulative IPC: 0.569063 (Simulation time: 0 hr 37 min 27 sec) 
Heartbeat CPU 0 instructions: 800000003 cycles: 1270924340 heartbeat IPC: 0.567285 cumulative IPC: 0.569038 (Simulation time: 0 hr 37 min 56 sec) 
Heartbeat CPU 0 instructions: 810000001 cycles: 1288442932 heartbeat IPC: 0.570822 cumulative IPC: 0.569063 (Simulation time: 0 hr 38 min 26 sec) 
Heartbeat CPU 0 instructions: 820000001 cycles: 1306013739 heartbeat IPC: 0.569126 cumulative IPC: 0.569064 (Simulation time: 0 hr 38 min 55 sec) 
Heartbeat CPU 0 instructions: 830000001 cycles: 1323757537 heartbeat IPC: 0.563577 cumulative IPC: 0.568988 (Simulation time: 0 hr 39 min 25 sec) 
Heartbeat CPU 0 instructions: 840000002 cycles: 1341281874 heartbeat IPC: 0.570635 cumulative IPC: 0.56901 (Simulation time: 0 hr 39 min 54 sec) 
Heartbeat CPU 0 instructions: 850000001 cycles: 1358912528 heartbeat IPC: 0.567194 cumulative IPC: 0.568986 (Simulation time: 0 hr 40 min 24 sec) 
Heartbeat CPU 0 instructions: 860000001 cycles: 1376502734 heartbeat IPC: 0.568498 cumulative IPC: 0.568979 (Simulation time: 0 hr 40 min 53 sec) 
Heartbeat CPU 0 instructions: 870000003 cycles: 1394191206 heartbeat IPC: 0.56534 cumulative IPC: 0.568932 (Simulation time: 0 hr 41 min 23 sec) 
Heartbeat CPU 0 instructions: 880000000 cycles: 1411815151 heartbeat IPC: 0.56741 cumulative IPC: 0.568912 (Simulation time: 0 hr 41 min 53 sec) 
Heartbeat CPU 0 instructions: 890000000 cycles: 1429462480 heartbeat IPC: 0.566658 cumulative IPC: 0.568884 (Simulation time: 0 hr 42 min 22 sec) 
Heartbeat CPU 0 instructions: 900000002 cycles: 1447089337 heartbeat IPC: 0.567316 cumulative IPC: 0.568864 (Simulation time: 0 hr 42 min 52 sec) 
Heartbeat CPU 0 instructions: 910000001 cycles: 1464634088 heartbeat IPC: 0.569971 cumulative IPC: 0.568878 (Simulation time: 0 hr 43 min 21 sec) 
Heartbeat CPU 0 instructions: 920000000 cycles: 1482248745 heartbeat IPC: 0.567709 cumulative IPC: 0.568863 (Simulation time: 0 hr 43 min 51 sec) 
Heartbeat CPU 0 instructions: 930000000 cycles: 1499721080 heartbeat IPC: 0.572333 cumulative IPC: 0.568905 (Simulation time: 0 hr 44 min 20 sec) 
Heartbeat CPU 0 instructions: 940000000 cycles: 1517406020 heartbeat IPC: 0.565453 cumulative IPC: 0.568864 (Simulation time: 0 hr 44 min 50 sec) 
Heartbeat CPU 0 instructions: 950000000 cycles: 1535007389 heartbeat IPC: 0.568138 cumulative IPC: 0.568855 (Simulation time: 0 hr 45 min 19 sec) 
Heartbeat CPU 0 instructions: 960000000 cycles: 1552508559 heartbeat IPC: 0.57139 cumulative IPC: 0.568884 (Simulation time: 0 hr 45 min 49 sec) 
Heartbeat CPU 0 instructions: 970000002 cycles: 1570143721 heartbeat IPC: 0.567049 cumulative IPC: 0.568863 (Simulation time: 0 hr 46 min 18 sec) 
Heartbeat CPU 0 instructions: 980000002 cycles: 1587766428 heartbeat IPC: 0.56745 cumulative IPC: 0.568847 (Simulation time: 0 hr 46 min 48 sec) 
Heartbeat CPU 0 instructions: 990000000 cycles: 1605447748 heartbeat IPC: 0.565569 cumulative IPC: 0.56881 (Simulation time: 0 hr 47 min 17 sec) 
Heartbeat CPU 0 instructions: 1000000001 cycles: 1623155613 heartbeat IPC: 0.564721 cumulative IPC: 0.568764 (Simulation time: 0 hr 47 min 47 sec) 
Heartbeat CPU 0 instructions: 1010000002 cycles: 1640745413 heartbeat IPC: 0.568511 cumulative IPC: 0.568761 (Simulation time: 0 hr 48 min 16 sec) 
Heartbeat CPU 0 instructions: 1020000003 cycles: 1658534010 heartbeat IPC: 0.562158 cumulative IPC: 0.568689 (Simulation time: 0 hr 48 min 46 sec) 
Heartbeat CPU 0 instructions: 1030000003 cycles: 1675938413 heartbeat IPC: 0.574567 cumulative IPC: 0.568751 (Simulation time: 0 hr 49 min 16 sec) 
Heartbeat CPU 0 instructions: 1040000001 cycles: 1693669799 heartbeat IPC: 0.563972 cumulative IPC: 0.5687 (Simulation time: 0 hr 49 min 45 sec) 
Heartbeat CPU 0 instructions: 1050000001 cycles: 1711295013 heartbeat IPC: 0.567369 cumulative IPC: 0.568686 (Simulation time: 0 hr 50 min 15 sec) 
Heartbeat CPU 0 instructions: 1060000002 cycles: 1728906202 heartbeat IPC: 0.567821 cumulative IPC: 0.568677 (Simulation time: 0 hr 50 min 44 sec) 
Heartbeat CPU 0 instructions: 1070000002 cycles: 1746438409 heartbeat IPC: 0.570379 cumulative IPC: 0.568695 (Simulation time: 0 hr 51 min 14 sec) 
Heartbeat CPU 0 instructions: 1080000001 cycles: 1763904997 heartbeat IPC: 0.572522 cumulative IPC: 0.568733 (Simulation time: 0 hr 51 min 43 sec) 
Heartbeat CPU 0 instructions: 1090000001 cycles: 1781410498 heartbeat IPC: 0.571249 cumulative IPC: 0.568759 (Simulation time: 0 hr 52 min 13 sec) 
Heartbeat CPU 0 instructions: 1100000000 cycles: 1798961887 heartbeat IPC: 0.569755 cumulative IPC: 0.568769 (Simulation time: 0 hr 52 min 42 sec) 
Finished CPU 0 instructions: 1000000000 cycles: 1758184210 cumulative IPC: 0.568769 (Simulation time: 0 hr 52 min 42 sec) 

ChampSim completed all CPUs

Region of Interest Statistics

CPU 0 cumulative IPC: 0.568769 instructions: 1000000000 cycles: 1758184210
L1D TOTAL     ACCESS:  200829699  HIT:  187638482  MISS:   13191217
L1D LOAD      ACCESS:  130554688  HIT:  117380764  MISS:   13173924
L1D RFO       ACCESS:   70275011  HIT:   70257718  MISS:      17293
L1D PREFETCH  ACCESS:          0  HIT:          0  MISS:          0
L1D WRITEBACK ACCESS:          0  HIT:          0  MISS:          0
L1D PREFETCH  REQUESTED:          0  ISSUED:          0  USEFUL:          0  USELESS:          0
L1D AVERAGE MISS LATENCY: 168.51 cycles
L1I TOTAL     ACCESS:  156860076  HIT:  156859799  MISS:        277
L1I LOAD      ACCESS:  156860076  HIT:  156859799  MISS:        277
L1I RFO       ACCESS:          0  HIT:          0  MISS:          0
L1I PREFETCH  ACCESS:          0  HIT:          0  MISS:          0
L1I WRITEBACK ACCESS:          0  HIT:          0  MISS:          0
L1I PREFETCH  REQUESTED:          0  ISSUED:          0  USEFUL:          0  USELESS:          0
L1I AVERAGE MISS LATENCY: 236.094 cycles
L2C TOTAL     ACCESS:   21948149  HIT:    8773065  MISS:   13175084
L2C LOAD      ACCESS:   13174201  HIT:      13208  MISS:   13160993
L2C RFO       ACCESS:      17293  HIT:       3202  MISS:      14091
L2C PREFETCH  ACCESS:          0  HIT:          0  MISS:          0
L2C WRITEBACK ACCESS:    8756655  HIT:    8756655  MISS:          0
L2C PREFETCH  REQUESTED:          0  ISSUED:          0  USEFUL:          0  USELESS:          0
L2C AVERAGE MISS LATENCY: 156.642 cycles
LLC TOTAL     ACCESS:   21925309  HIT:    4467285  MISS:   17458024
LLC LOAD      ACCESS:   13160993  HIT:    4421336  MISS:    8739657
LLC RFO       ACCESS:      14091  HIT:      14085  MISS:          6
LLC PREFETCH  ACCESS:          0  HIT:          0  MISS:          0
LLC WRITEBACK ACCESS:    8750225  HIT:      31864  MISS:    8718361
LLC PREFETCH  REQUESTED:          0  ISSUED:          0  USEFUL:          0  USELESS:          0
LLC AVERAGE MISS LATENCY: 87.9443 cycles
Major fault: 0 Minor fault: 150551

DRAM Statistics
 CHANNEL 0
 RQ ROW_BUFFER_HIT:     643120  ROW_BUFFER_MISS:    8096543
 DBUS_CONGESTED:    3489967
 WQ ROW_BUFFER_HIT:    5505261  ROW_BUFFER_MISS:    3229728  FULL:          0

 AVG_CONGESTED_CYCLE: 6

CPU 0 Branch Prediction Accuracy: 99.8879% MPKI: 0.020211 Average ROB Occupancy at Mispredict: 146.29

Branch types
NOT_BRANCH: 981968651 98.1969%
BRANCH_DIRECT_JUMP: 75894 0.0075894%
BRANCH_INDIRECT: 0 0%
BRANCH_CONDITIONAL: 17834435 1.78344%
BRANCH_DIRECT_CALL: 60502 0.0060502%
BRANCH_INDIRECT_CALL: 0 0%
BRANCH_RETURN: 60502 0.0060502%
BRANCH_OTHER: 0 0%

