
*** ChampSim Multicore Out-of-Order Simulator ***

Warmup Instructions: 100000000
Simulation Instructions: 1000000000
Number of CPUs: 1
LLC sets: 2048
LLC ways: 16
Off-chip DRAM Size: 4096 MB Channels: 1 Width: 64-bit Data Rate: 3200 MT/s

CPU 0 runs /scratch/user/kevin.weston/dpc3-traces/649.champsimtrace.xz
CPU 0 Bimodal branch predictor
Initialize DRRIP state
Assign rand_sets[0]: 454  LLC: 2048
rand_sets[0]: 454
Assign rand_sets[1]: 1662  LLC: 2048
rand_sets[1]: 1662
Assign rand_sets[2]: 1921  LLC: 2048
rand_sets[2]: 1921
Assign rand_sets[3]: 1131  LLC: 2048
rand_sets[3]: 1131
Assign rand_sets[4]: 331  LLC: 2048
rand_sets[4]: 331
Assign rand_sets[5]: 1531  LLC: 2048
rand_sets[5]: 1531
Assign rand_sets[6]: 482  LLC: 2048
rand_sets[6]: 482
Assign rand_sets[7]: 1275  LLC: 2048
rand_sets[7]: 1275
Assign rand_sets[8]: 1876  LLC: 2048
rand_sets[8]: 1876
Assign rand_sets[9]: 2038  LLC: 2048
rand_sets[9]: 2038
Assign rand_sets[10]: 701  LLC: 2048
rand_sets[10]: 701
Assign rand_sets[11]: 479  LLC: 2048
rand_sets[11]: 479
Assign rand_sets[12]: 892  LLC: 2048
rand_sets[12]: 892
Assign rand_sets[13]: 1820  LLC: 2048
rand_sets[13]: 1820
Assign rand_sets[14]: 1505  LLC: 2048
rand_sets[14]: 1505
Assign rand_sets[15]: 1159  LLC: 2048
rand_sets[15]: 1159
Assign rand_sets[16]: 513  LLC: 2048
rand_sets[16]: 513
Assign rand_sets[17]: 703  LLC: 2048
rand_sets[17]: 703
Assign rand_sets[18]: 561  LLC: 2048
rand_sets[18]: 561
Assign rand_sets[19]: 990  LLC: 2048
rand_sets[19]: 990
Assign rand_sets[20]: 342  LLC: 2048
rand_sets[20]: 342
Assign rand_sets[21]: 882  LLC: 2048
rand_sets[21]: 882
Assign rand_sets[22]: 15  LLC: 2048
rand_sets[22]: 15
Assign rand_sets[23]: 71  LLC: 2048
rand_sets[23]: 71
Assign rand_sets[24]: 1127  LLC: 2048
rand_sets[24]: 1127
Assign rand_sets[25]: 1382  LLC: 2048
rand_sets[25]: 1382
Assign rand_sets[26]: 647  LLC: 2048
rand_sets[26]: 647
Assign rand_sets[27]: 857  LLC: 2048
rand_sets[27]: 857
Assign rand_sets[28]: 1450  LLC: 2048
rand_sets[28]: 1450
Assign rand_sets[29]: 1160  LLC: 2048
rand_sets[29]: 1160
Assign rand_sets[30]: 1852  LLC: 2048
rand_sets[30]: 1852
Assign rand_sets[31]: 1881  LLC: 2048
rand_sets[31]: 1881
Assign rand_sets[32]: 1770  LLC: 2048
rand_sets[32]: 1770
Assign rand_sets[33]: 1622  LLC: 2048
rand_sets[33]: 1622
Assign rand_sets[34]: 275  LLC: 2048
rand_sets[34]: 275
Assign rand_sets[35]: 635  LLC: 2048
rand_sets[35]: 635
Assign rand_sets[36]: 466  LLC: 2048
rand_sets[36]: 466
Assign rand_sets[37]: 1413  LLC: 2048
rand_sets[37]: 1413
Assign rand_sets[38]: 417  LLC: 2048
rand_sets[38]: 417
Assign rand_sets[39]: 472  LLC: 2048
rand_sets[39]: 472
Assign rand_sets[40]: 1340  LLC: 2048
rand_sets[40]: 1340
Assign rand_sets[41]: 852  LLC: 2048
rand_sets[41]: 852
Assign rand_sets[42]: 1365  LLC: 2048
rand_sets[42]: 1365
Assign rand_sets[43]: 47  LLC: 2048
rand_sets[43]: 47
Assign rand_sets[44]: 823  LLC: 2048
rand_sets[44]: 823
Assign rand_sets[45]: 686  LLC: 2048
rand_sets[45]: 686
Assign rand_sets[46]: 1637  LLC: 2048
rand_sets[46]: 1637
Assign rand_sets[47]: 1115  LLC: 2048
rand_sets[47]: 1115
Assign rand_sets[48]: 986  LLC: 2048
rand_sets[48]: 986
Assign rand_sets[49]: 258  LLC: 2048
rand_sets[49]: 258
Assign rand_sets[50]: 633  LLC: 2048
rand_sets[50]: 633
Assign rand_sets[51]: 920  LLC: 2048
rand_sets[51]: 920
Assign rand_sets[52]: 204  LLC: 2048
rand_sets[52]: 204
Assign rand_sets[53]: 227  LLC: 2048
rand_sets[53]: 227
Assign rand_sets[54]: 1818  LLC: 2048
rand_sets[54]: 1818
Assign rand_sets[55]: 886  LLC: 2048
rand_sets[55]: 886
Assign rand_sets[56]: 1422  LLC: 2048
rand_sets[56]: 1422
Assign rand_sets[57]: 607  LLC: 2048
rand_sets[57]: 607
Assign rand_sets[58]: 217  LLC: 2048
rand_sets[58]: 217
Assign rand_sets[59]: 1945  LLC: 2048
rand_sets[59]: 1945
Assign rand_sets[60]: 143  LLC: 2048
rand_sets[60]: 143
Assign rand_sets[61]: 1311  LLC: 2048
rand_sets[61]: 1311
Assign rand_sets[62]: 319  LLC: 2048
rand_sets[62]: 319
Assign rand_sets[63]: 1846  LLC: 2048
rand_sets[63]: 1846
Heartbeat CPU 0 instructions: 10000000 cycles: 4077788 heartbeat IPC: 2.45231 cumulative IPC: 2.45231 (Simulation time: 0 hr 0 min 22 sec) 
Heartbeat CPU 0 instructions: 20000000 cycles: 8155524 heartbeat IPC: 2.45234 cumulative IPC: 2.45233 (Simulation time: 0 hr 0 min 45 sec) 
Heartbeat CPU 0 instructions: 30000000 cycles: 12233284 heartbeat IPC: 2.45233 cumulative IPC: 2.45233 (Simulation time: 0 hr 1 min 7 sec) 
Heartbeat CPU 0 instructions: 40000003 cycles: 16311023 heartbeat IPC: 2.45234 cumulative IPC: 2.45233 (Simulation time: 0 hr 1 min 30 sec) 
Heartbeat CPU 0 instructions: 50000002 cycles: 20388720 heartbeat IPC: 2.45236 cumulative IPC: 2.45234 (Simulation time: 0 hr 1 min 52 sec) 
Heartbeat CPU 0 instructions: 60000003 cycles: 24466575 heartbeat IPC: 2.45227 cumulative IPC: 2.45233 (Simulation time: 0 hr 2 min 15 sec) 
Heartbeat CPU 0 instructions: 70000003 cycles: 28544322 heartbeat IPC: 2.45233 cumulative IPC: 2.45233 (Simulation time: 0 hr 2 min 38 sec) 
Heartbeat CPU 0 instructions: 80000003 cycles: 32622074 heartbeat IPC: 2.45233 cumulative IPC: 2.45233 (Simulation time: 0 hr 3 min 0 sec) 
Heartbeat CPU 0 instructions: 90000003 cycles: 36699906 heartbeat IPC: 2.45228 cumulative IPC: 2.45232 (Simulation time: 0 hr 3 min 23 sec) 
Heartbeat CPU 0 instructions: 100000003 cycles: 40777671 heartbeat IPC: 2.45232 cumulative IPC: 2.45232 (Simulation time: 0 hr 3 min 46 sec) 

Warmup complete CPU 0 instructions: 100000003 cycles: 40777671 (Simulation time: 0 hr 3 min 46 sec) 

Heartbeat CPU 0 instructions: 110000000 cycles: 58788562 heartbeat IPC: 0.555219 cumulative IPC: 0.555219 (Simulation time: 0 hr 4 min 15 sec) 
Heartbeat CPU 0 instructions: 120000001 cycles: 76802807 heartbeat IPC: 0.555116 cumulative IPC: 0.555168 (Simulation time: 0 hr 4 min 44 sec) 
Heartbeat CPU 0 instructions: 130000003 cycles: 94820774 heartbeat IPC: 0.555002 cumulative IPC: 0.555112 (Simulation time: 0 hr 5 min 12 sec) 
Heartbeat CPU 0 instructions: 140000003 cycles: 112835241 heartbeat IPC: 0.555109 cumulative IPC: 0.555112 (Simulation time: 0 hr 5 min 41 sec) 
Heartbeat CPU 0 instructions: 150000001 cycles: 130851678 heartbeat IPC: 0.555049 cumulative IPC: 0.555099 (Simulation time: 0 hr 6 min 10 sec) 
Heartbeat CPU 0 instructions: 160000003 cycles: 148870738 heartbeat IPC: 0.554968 cumulative IPC: 0.555077 (Simulation time: 0 hr 6 min 39 sec) 
Heartbeat CPU 0 instructions: 170000002 cycles: 166892508 heartbeat IPC: 0.554884 cumulative IPC: 0.55505 (Simulation time: 0 hr 7 min 7 sec) 
Heartbeat CPU 0 instructions: 180000001 cycles: 184906303 heartbeat IPC: 0.55513 cumulative IPC: 0.55506 (Simulation time: 0 hr 7 min 36 sec) 
Heartbeat CPU 0 instructions: 190000001 cycles: 202928260 heartbeat IPC: 0.554879 cumulative IPC: 0.55504 (Simulation time: 0 hr 8 min 5 sec) 
Heartbeat CPU 0 instructions: 200000003 cycles: 220947182 heartbeat IPC: 0.554972 cumulative IPC: 0.555033 (Simulation time: 0 hr 8 min 34 sec) 
Heartbeat CPU 0 instructions: 210000003 cycles: 238966393 heartbeat IPC: 0.554963 cumulative IPC: 0.555027 (Simulation time: 0 hr 9 min 3 sec) 
Heartbeat CPU 0 instructions: 220000000 cycles: 256986034 heartbeat IPC: 0.55495 cumulative IPC: 0.55502 (Simulation time: 0 hr 9 min 32 sec) 
Heartbeat CPU 0 instructions: 230000002 cycles: 275006392 heartbeat IPC: 0.554928 cumulative IPC: 0.555013 (Simulation time: 0 hr 10 min 0 sec) 
Heartbeat CPU 0 instructions: 240000003 cycles: 293026187 heartbeat IPC: 0.554945 cumulative IPC: 0.555008 (Simulation time: 0 hr 10 min 29 sec) 
Heartbeat CPU 0 instructions: 250000000 cycles: 311047879 heartbeat IPC: 0.554887 cumulative IPC: 0.555 (Simulation time: 0 hr 10 min 58 sec) 
Heartbeat CPU 0 instructions: 260000000 cycles: 329066327 heartbeat IPC: 0.554987 cumulative IPC: 0.554999 (Simulation time: 0 hr 11 min 27 sec) 
Heartbeat CPU 0 instructions: 270000002 cycles: 345830482 heartbeat IPC: 0.596511 cumulative IPC: 0.557281 (Simulation time: 0 hr 11 min 54 sec) 
Heartbeat CPU 0 instructions: 280000003 cycles: 361708985 heartbeat IPC: 0.629782 cumulative IPC: 0.560868 (Simulation time: 0 hr 12 min 21 sec) 
Heartbeat CPU 0 instructions: 290000000 cycles: 379724689 heartbeat IPC: 0.555071 cumulative IPC: 0.56056 (Simulation time: 0 hr 12 min 50 sec) 
Heartbeat CPU 0 instructions: 300000003 cycles: 397739098 heartbeat IPC: 0.555111 cumulative IPC: 0.560285 (Simulation time: 0 hr 13 min 19 sec) 
Heartbeat CPU 0 instructions: 310000000 cycles: 415753880 heartbeat IPC: 0.5551 cumulative IPC: 0.560036 (Simulation time: 0 hr 13 min 48 sec) 
Heartbeat CPU 0 instructions: 320000000 cycles: 433770924 heartbeat IPC: 0.55503 cumulative IPC: 0.559806 (Simulation time: 0 hr 14 min 17 sec) 
Heartbeat CPU 0 instructions: 330000000 cycles: 451787501 heartbeat IPC: 0.555044 cumulative IPC: 0.559597 (Simulation time: 0 hr 14 min 46 sec) 
Heartbeat CPU 0 instructions: 340000002 cycles: 469805933 heartbeat IPC: 0.554987 cumulative IPC: 0.559404 (Simulation time: 0 hr 15 min 15 sec) 
Heartbeat CPU 0 instructions: 350000003 cycles: 487821482 heartbeat IPC: 0.555076 cumulative IPC: 0.559229 (Simulation time: 0 hr 15 min 44 sec) 
Heartbeat CPU 0 instructions: 360000001 cycles: 505836782 heartbeat IPC: 0.555084 cumulative IPC: 0.559069 (Simulation time: 0 hr 16 min 13 sec) 
Heartbeat CPU 0 instructions: 370000001 cycles: 523851972 heartbeat IPC: 0.555087 cumulative IPC: 0.55892 (Simulation time: 0 hr 16 min 42 sec) 
Heartbeat CPU 0 instructions: 380000001 cycles: 541866437 heartbeat IPC: 0.555109 cumulative IPC: 0.558783 (Simulation time: 0 hr 17 min 11 sec) 
Heartbeat CPU 0 instructions: 390000003 cycles: 559882201 heartbeat IPC: 0.55507 cumulative IPC: 0.558654 (Simulation time: 0 hr 17 min 40 sec) 
Heartbeat CPU 0 instructions: 400000001 cycles: 577898037 heartbeat IPC: 0.555067 cumulative IPC: 0.558534 (Simulation time: 0 hr 18 min 9 sec) 
Heartbeat CPU 0 instructions: 410000001 cycles: 595916926 heartbeat IPC: 0.554973 cumulative IPC: 0.558418 (Simulation time: 0 hr 18 min 38 sec) 
Heartbeat CPU 0 instructions: 420000003 cycles: 613938422 heartbeat IPC: 0.554893 cumulative IPC: 0.558308 (Simulation time: 0 hr 19 min 7 sec) 
Heartbeat CPU 0 instructions: 430000002 cycles: 631957792 heartbeat IPC: 0.554958 cumulative IPC: 0.558205 (Simulation time: 0 hr 19 min 36 sec) 
Heartbeat CPU 0 instructions: 440000000 cycles: 649978452 heartbeat IPC: 0.554919 cumulative IPC: 0.558108 (Simulation time: 0 hr 20 min 5 sec) 
Heartbeat CPU 0 instructions: 450000003 cycles: 668000141 heartbeat IPC: 0.554887 cumulative IPC: 0.558016 (Simulation time: 0 hr 20 min 34 sec) 
Heartbeat CPU 0 instructions: 460000000 cycles: 686018031 heartbeat IPC: 0.555004 cumulative IPC: 0.557932 (Simulation time: 0 hr 21 min 3 sec) 
Heartbeat CPU 0 instructions: 470000000 cycles: 704040328 heartbeat IPC: 0.554868 cumulative IPC: 0.557848 (Simulation time: 0 hr 21 min 32 sec) 
Heartbeat CPU 0 instructions: 480000002 cycles: 722059517 heartbeat IPC: 0.554964 cumulative IPC: 0.557772 (Simulation time: 0 hr 22 min 1 sec) 
Heartbeat CPU 0 instructions: 490000002 cycles: 740081902 heartbeat IPC: 0.554866 cumulative IPC: 0.557697 (Simulation time: 0 hr 22 min 31 sec) 
Heartbeat CPU 0 instructions: 500000003 cycles: 758099005 heartbeat IPC: 0.555028 cumulative IPC: 0.55763 (Simulation time: 0 hr 22 min 59 sec) 
Heartbeat CPU 0 instructions: 510000000 cycles: 776114932 heartbeat IPC: 0.555064 cumulative IPC: 0.557567 (Simulation time: 0 hr 23 min 28 sec) 
Heartbeat CPU 0 instructions: 520000002 cycles: 794132987 heartbeat IPC: 0.554999 cumulative IPC: 0.557506 (Simulation time: 0 hr 23 min 57 sec) 
Heartbeat CPU 0 instructions: 530000000 cycles: 812148983 heartbeat IPC: 0.555062 cumulative IPC: 0.557449 (Simulation time: 0 hr 24 min 26 sec) 
Heartbeat CPU 0 instructions: 540000000 cycles: 830167705 heartbeat IPC: 0.554978 cumulative IPC: 0.557392 (Simulation time: 0 hr 24 min 55 sec) 
Heartbeat CPU 0 instructions: 550000000 cycles: 848185013 heartbeat IPC: 0.555022 cumulative IPC: 0.557339 (Simulation time: 0 hr 25 min 24 sec) 
Heartbeat CPU 0 instructions: 560000001 cycles: 866201438 heartbeat IPC: 0.555049 cumulative IPC: 0.557289 (Simulation time: 0 hr 25 min 53 sec) 
Heartbeat CPU 0 instructions: 570000003 cycles: 884214832 heartbeat IPC: 0.555143 cumulative IPC: 0.557244 (Simulation time: 0 hr 26 min 22 sec) 
Heartbeat CPU 0 instructions: 580000003 cycles: 902228471 heartbeat IPC: 0.555135 cumulative IPC: 0.5572 (Simulation time: 0 hr 26 min 53 sec) 
Heartbeat CPU 0 instructions: 590000001 cycles: 920243033 heartbeat IPC: 0.555106 cumulative IPC: 0.557157 (Simulation time: 0 hr 27 min 22 sec) 
Heartbeat CPU 0 instructions: 600000001 cycles: 938257800 heartbeat IPC: 0.5551 cumulative IPC: 0.557115 (Simulation time: 0 hr 27 min 51 sec) 
Heartbeat CPU 0 instructions: 610000001 cycles: 956273387 heartbeat IPC: 0.555075 cumulative IPC: 0.557075 (Simulation time: 0 hr 28 min 20 sec) 
Heartbeat CPU 0 instructions: 620000001 cycles: 974291863 heartbeat IPC: 0.554986 cumulative IPC: 0.557035 (Simulation time: 0 hr 28 min 50 sec) 
Heartbeat CPU 0 instructions: 630000001 cycles: 992312912 heartbeat IPC: 0.554907 cumulative IPC: 0.556995 (Simulation time: 0 hr 29 min 19 sec) 
Heartbeat CPU 0 instructions: 640000003 cycles: 1010334152 heartbeat IPC: 0.554901 cumulative IPC: 0.556956 (Simulation time: 0 hr 29 min 49 sec) 
Heartbeat CPU 0 instructions: 650000003 cycles: 1028354432 heartbeat IPC: 0.55493 cumulative IPC: 0.556919 (Simulation time: 0 hr 30 min 18 sec) 
Heartbeat CPU 0 instructions: 660000000 cycles: 1046375298 heartbeat IPC: 0.554912 cumulative IPC: 0.556883 (Simulation time: 0 hr 30 min 47 sec) 
Heartbeat CPU 0 instructions: 670000002 cycles: 1064397126 heartbeat IPC: 0.554883 cumulative IPC: 0.556848 (Simulation time: 0 hr 31 min 16 sec) 
Heartbeat CPU 0 instructions: 680000003 cycles: 1082413552 heartbeat IPC: 0.555049 cumulative IPC: 0.556816 (Simulation time: 0 hr 31 min 46 sec) 
Heartbeat CPU 0 instructions: 690000000 cycles: 1100435470 heartbeat IPC: 0.55488 cumulative IPC: 0.556783 (Simulation time: 0 hr 32 min 15 sec) 
Heartbeat CPU 0 instructions: 700000000 cycles: 1118456959 heartbeat IPC: 0.554893 cumulative IPC: 0.556752 (Simulation time: 0 hr 32 min 44 sec) 
Heartbeat CPU 0 instructions: 710000002 cycles: 1136478368 heartbeat IPC: 0.554896 cumulative IPC: 0.556721 (Simulation time: 0 hr 33 min 13 sec) 
Heartbeat CPU 0 instructions: 720000002 cycles: 1154498776 heartbeat IPC: 0.554926 cumulative IPC: 0.556692 (Simulation time: 0 hr 33 min 42 sec) 
Heartbeat CPU 0 instructions: 730000000 cycles: 1172515744 heartbeat IPC: 0.555032 cumulative IPC: 0.556666 (Simulation time: 0 hr 34 min 12 sec) 
Heartbeat CPU 0 instructions: 740000000 cycles: 1190532722 heartbeat IPC: 0.555032 cumulative IPC: 0.55664 (Simulation time: 0 hr 34 min 41 sec) 
Heartbeat CPU 0 instructions: 750000002 cycles: 1208546917 heartbeat IPC: 0.555118 cumulative IPC: 0.556617 (Simulation time: 0 hr 35 min 10 sec) 
Heartbeat CPU 0 instructions: 760000002 cycles: 1226568913 heartbeat IPC: 0.554878 cumulative IPC: 0.55659 (Simulation time: 0 hr 35 min 39 sec) 
Heartbeat CPU 0 instructions: 770000000 cycles: 1244586236 heartbeat IPC: 0.555021 cumulative IPC: 0.556567 (Simulation time: 0 hr 36 min 8 sec) 
Heartbeat CPU 0 instructions: 780000002 cycles: 1262598158 heartbeat IPC: 0.555188 cumulative IPC: 0.556547 (Simulation time: 0 hr 36 min 38 sec) 
Heartbeat CPU 0 instructions: 790000003 cycles: 1280616830 heartbeat IPC: 0.55498 cumulative IPC: 0.556524 (Simulation time: 0 hr 37 min 7 sec) 
Heartbeat CPU 0 instructions: 800000003 cycles: 1298632565 heartbeat IPC: 0.55507 cumulative IPC: 0.556503 (Simulation time: 0 hr 37 min 36 sec) 
Heartbeat CPU 0 instructions: 810000001 cycles: 1316646855 heartbeat IPC: 0.555115 cumulative IPC: 0.556483 (Simulation time: 0 hr 38 min 5 sec) 
Heartbeat CPU 0 instructions: 820000001 cycles: 1334660086 heartbeat IPC: 0.555147 cumulative IPC: 0.556465 (Simulation time: 0 hr 38 min 35 sec) 
Heartbeat CPU 0 instructions: 830000001 cycles: 1352674658 heartbeat IPC: 0.555106 cumulative IPC: 0.556446 (Simulation time: 0 hr 39 min 4 sec) 
Heartbeat CPU 0 instructions: 840000002 cycles: 1370693706 heartbeat IPC: 0.554968 cumulative IPC: 0.556426 (Simulation time: 0 hr 39 min 33 sec) 
Heartbeat CPU 0 instructions: 850000001 cycles: 1388715584 heartbeat IPC: 0.554881 cumulative IPC: 0.556405 (Simulation time: 0 hr 40 min 2 sec) 
Heartbeat CPU 0 instructions: 860000001 cycles: 1406738250 heartbeat IPC: 0.554857 cumulative IPC: 0.556385 (Simulation time: 0 hr 40 min 31 sec) 
Heartbeat CPU 0 instructions: 870000003 cycles: 1424760044 heartbeat IPC: 0.554884 cumulative IPC: 0.556365 (Simulation time: 0 hr 41 min 0 sec) 
Heartbeat CPU 0 instructions: 880000000 cycles: 1442776821 heartbeat IPC: 0.555038 cumulative IPC: 0.556348 (Simulation time: 0 hr 41 min 29 sec) 
Heartbeat CPU 0 instructions: 890000000 cycles: 1460794472 heartbeat IPC: 0.555011 cumulative IPC: 0.556331 (Simulation time: 0 hr 41 min 59 sec) 
Heartbeat CPU 0 instructions: 900000002 cycles: 1478811069 heartbeat IPC: 0.555044 cumulative IPC: 0.556315 (Simulation time: 0 hr 42 min 28 sec) 
Heartbeat CPU 0 instructions: 910000001 cycles: 1496830258 heartbeat IPC: 0.554964 cumulative IPC: 0.556299 (Simulation time: 0 hr 42 min 57 sec) 
Heartbeat CPU 0 instructions: 920000000 cycles: 1514853247 heartbeat IPC: 0.554847 cumulative IPC: 0.556281 (Simulation time: 0 hr 43 min 26 sec) 
Heartbeat CPU 0 instructions: 930000000 cycles: 1532873059 heartbeat IPC: 0.554945 cumulative IPC: 0.556265 (Simulation time: 0 hr 43 min 55 sec) 
Heartbeat CPU 0 instructions: 940000000 cycles: 1550892275 heartbeat IPC: 0.554963 cumulative IPC: 0.556249 (Simulation time: 0 hr 44 min 24 sec) 
Heartbeat CPU 0 instructions: 950000000 cycles: 1568910729 heartbeat IPC: 0.554987 cumulative IPC: 0.556234 (Simulation time: 0 hr 44 min 54 sec) 
Heartbeat CPU 0 instructions: 960000000 cycles: 1586925515 heartbeat IPC: 0.5551 cumulative IPC: 0.556221 (Simulation time: 0 hr 45 min 23 sec) 
Heartbeat CPU 0 instructions: 970000002 cycles: 1604940943 heartbeat IPC: 0.55508 cumulative IPC: 0.556208 (Simulation time: 0 hr 45 min 52 sec) 
Heartbeat CPU 0 instructions: 980000002 cycles: 1622957228 heartbeat IPC: 0.555053 cumulative IPC: 0.556195 (Simulation time: 0 hr 46 min 21 sec) 
Heartbeat CPU 0 instructions: 990000000 cycles: 1640972850 heartbeat IPC: 0.555074 cumulative IPC: 0.556182 (Simulation time: 0 hr 46 min 50 sec) 
Heartbeat CPU 0 instructions: 1000000001 cycles: 1658989739 heartbeat IPC: 0.555035 cumulative IPC: 0.556169 (Simulation time: 0 hr 47 min 19 sec) 
Heartbeat CPU 0 instructions: 1010000002 cycles: 1677005082 heartbeat IPC: 0.555082 cumulative IPC: 0.556157 (Simulation time: 0 hr 47 min 49 sec) 
Heartbeat CPU 0 instructions: 1020000003 cycles: 1695022468 heartbeat IPC: 0.555019 cumulative IPC: 0.556145 (Simulation time: 0 hr 48 min 18 sec) 
Heartbeat CPU 0 instructions: 1030000003 cycles: 1713035211 heartbeat IPC: 0.555163 cumulative IPC: 0.556134 (Simulation time: 0 hr 48 min 47 sec) 
Heartbeat CPU 0 instructions: 1040000001 cycles: 1731051963 heartbeat IPC: 0.555039 cumulative IPC: 0.556123 (Simulation time: 0 hr 49 min 16 sec) 
Heartbeat CPU 0 instructions: 1050000001 cycles: 1749067989 heartbeat IPC: 0.555061 cumulative IPC: 0.556112 (Simulation time: 0 hr 49 min 45 sec) 
Heartbeat CPU 0 instructions: 1060000002 cycles: 1767087708 heartbeat IPC: 0.554948 cumulative IPC: 0.556099 (Simulation time: 0 hr 50 min 14 sec) 
Heartbeat CPU 0 instructions: 1070000002 cycles: 1785109349 heartbeat IPC: 0.554888 cumulative IPC: 0.556087 (Simulation time: 0 hr 50 min 43 sec) 
Heartbeat CPU 0 instructions: 1080000001 cycles: 1803126408 heartbeat IPC: 0.55503 cumulative IPC: 0.556076 (Simulation time: 0 hr 51 min 12 sec) 
Heartbeat CPU 0 instructions: 1090000001 cycles: 1821147997 heartbeat IPC: 0.55489 cumulative IPC: 0.556064 (Simulation time: 0 hr 51 min 41 sec) 
Heartbeat CPU 0 instructions: 1100000000 cycles: 1839167745 heartbeat IPC: 0.554947 cumulative IPC: 0.556053 (Simulation time: 0 hr 52 min 11 sec) 
Finished CPU 0 instructions: 1000000000 cycles: 1798390076 cumulative IPC: 0.556053 (Simulation time: 0 hr 52 min 11 sec) 

ChampSim completed all CPUs

Region of Interest Statistics

CPU 0 cumulative IPC: 0.556053 instructions: 1000000000 cycles: 1798390076
L1D TOTAL     ACCESS:  200820534  HIT:  187629317  MISS:   13191217
L1D LOAD      ACCESS:  130545593  HIT:  117371669  MISS:   13173924
L1D RFO       ACCESS:   70274941  HIT:   70257648  MISS:      17293
L1D PREFETCH  ACCESS:          0  HIT:          0  MISS:          0
L1D WRITEBACK ACCESS:          0  HIT:          0  MISS:          0
L1D PREFETCH  REQUESTED:          0  ISSUED:          0  USEFUL:          0  USELESS:          0
L1D AVERAGE MISS LATENCY: 173.236 cycles
L1I TOTAL     ACCESS:  156843935  HIT:  156843658  MISS:        277
L1I LOAD      ACCESS:  156843935  HIT:  156843658  MISS:        277
L1I RFO       ACCESS:          0  HIT:          0  MISS:          0
L1I PREFETCH  ACCESS:          0  HIT:          0  MISS:          0
L1I WRITEBACK ACCESS:          0  HIT:          0  MISS:          0
L1I PREFETCH  REQUESTED:          0  ISSUED:          0  USEFUL:          0  USELESS:          0
L1I AVERAGE MISS LATENCY: 236.841 cycles
L2C TOTAL     ACCESS:   21948149  HIT:    8773196  MISS:   13174953
L2C LOAD      ACCESS:   13174201  HIT:      13357  MISS:   13160844
L2C RFO       ACCESS:      17293  HIT:       3185  MISS:      14108
L2C PREFETCH  ACCESS:          0  HIT:          0  MISS:          0
L2C WRITEBACK ACCESS:    8756655  HIT:    8756654  MISS:          1
L2C PREFETCH  REQUESTED:          0  ISSUED:          0  USEFUL:          0  USELESS:          0
L2C AVERAGE MISS LATENCY: 161.375 cycles
LLC TOTAL     ACCESS:   21925160  HIT:   13053241  MISS:    8871919
LLC LOAD      ACCESS:   13160844  HIT:    4420811  MISS:    8740033
LLC RFO       ACCESS:      14107  HIT:      14097  MISS:         10
LLC PREFETCH  ACCESS:          0  HIT:          0  MISS:          0
LLC WRITEBACK ACCESS:    8750209  HIT:    8618333  MISS:     131876
LLC PREFETCH  REQUESTED:          0  ISSUED:          0  USEFUL:          0  USELESS:          0
LLC AVERAGE MISS LATENCY: 180.093 cycles
Major fault: 0 Minor fault: 150551

DRAM Statistics
 CHANNEL 0
 RQ ROW_BUFFER_HIT:      18159  ROW_BUFFER_MISS:    8721884
 DBUS_CONGESTED:    3192478
 WQ ROW_BUFFER_HIT:    5499583  ROW_BUFFER_MISS:    3235481  FULL:          0

 AVG_CONGESTED_CYCLE: 6

CPU 0 Branch Prediction Accuracy: 99.8879% MPKI: 0.020211 Average ROB Occupancy at Mispredict: 146.288

Branch types
NOT_BRANCH: 981968651 98.1969%
BRANCH_DIRECT_JUMP: 75894 0.0075894%
BRANCH_INDIRECT: 0 0%
BRANCH_CONDITIONAL: 17834435 1.78344%
BRANCH_DIRECT_CALL: 60502 0.0060502%
BRANCH_INDIRECT_CALL: 0 0%
BRANCH_RETURN: 60502 0.0060502%
BRANCH_OTHER: 0 0%

