
*** ChampSim Multicore Out-of-Order Simulator ***

Warmup Instructions: 100000000
Simulation Instructions: 1000000000
Number of CPUs: 1
LLC sets: 2048
LLC ways: 16
Off-chip DRAM Size: 4096 MB Channels: 1 Width: 64-bit Data Rate: 3200 MT/s

CPU 0 runs /scratch/user/kevin.weston/dpc3-traces/654.champsimtrace.xz
CPU 0 Bimodal branch predictor
Initialize SHIP state
Assign rand_sets[0]: 454  LLC: 2048
rand_sets[0]: 454
Assign rand_sets[1]: 1662  LLC: 2048
rand_sets[1]: 1662
Assign rand_sets[2]: 1921  LLC: 2048
rand_sets[2]: 1921
Assign rand_sets[3]: 1131  LLC: 2048
rand_sets[3]: 1131
Assign rand_sets[4]: 331  LLC: 2048
rand_sets[4]: 331
Assign rand_sets[5]: 1531  LLC: 2048
rand_sets[5]: 1531
Assign rand_sets[6]: 482  LLC: 2048
rand_sets[6]: 482
Assign rand_sets[7]: 1275  LLC: 2048
rand_sets[7]: 1275
Assign rand_sets[8]: 1876  LLC: 2048
rand_sets[8]: 1876
Assign rand_sets[9]: 2038  LLC: 2048
rand_sets[9]: 2038
Assign rand_sets[10]: 701  LLC: 2048
rand_sets[10]: 701
Assign rand_sets[11]: 479  LLC: 2048
rand_sets[11]: 479
Assign rand_sets[12]: 892  LLC: 2048
rand_sets[12]: 892
Assign rand_sets[13]: 1820  LLC: 2048
rand_sets[13]: 1820
Assign rand_sets[14]: 1505  LLC: 2048
rand_sets[14]: 1505
Assign rand_sets[15]: 1159  LLC: 2048
rand_sets[15]: 1159
Assign rand_sets[16]: 513  LLC: 2048
rand_sets[16]: 513
Assign rand_sets[17]: 703  LLC: 2048
rand_sets[17]: 703
Assign rand_sets[18]: 561  LLC: 2048
rand_sets[18]: 561
Assign rand_sets[19]: 990  LLC: 2048
rand_sets[19]: 990
Assign rand_sets[20]: 342  LLC: 2048
rand_sets[20]: 342
Assign rand_sets[21]: 882  LLC: 2048
rand_sets[21]: 882
Assign rand_sets[22]: 15  LLC: 2048
rand_sets[22]: 15
Assign rand_sets[23]: 71  LLC: 2048
rand_sets[23]: 71
Assign rand_sets[24]: 1127  LLC: 2048
rand_sets[24]: 1127
Assign rand_sets[25]: 1382  LLC: 2048
rand_sets[25]: 1382
Assign rand_sets[26]: 647  LLC: 2048
rand_sets[26]: 647
Assign rand_sets[27]: 857  LLC: 2048
rand_sets[27]: 857
Assign rand_sets[28]: 1450  LLC: 2048
rand_sets[28]: 1450
Assign rand_sets[29]: 1160  LLC: 2048
rand_sets[29]: 1160
Assign rand_sets[30]: 1852  LLC: 2048
rand_sets[30]: 1852
Assign rand_sets[31]: 1881  LLC: 2048
rand_sets[31]: 1881
Assign rand_sets[32]: 1770  LLC: 2048
rand_sets[32]: 1770
Assign rand_sets[33]: 1622  LLC: 2048
rand_sets[33]: 1622
Assign rand_sets[34]: 275  LLC: 2048
rand_sets[34]: 275
Assign rand_sets[35]: 635  LLC: 2048
rand_sets[35]: 635
Assign rand_sets[36]: 466  LLC: 2048
rand_sets[36]: 466
Assign rand_sets[37]: 1413  LLC: 2048
rand_sets[37]: 1413
Assign rand_sets[38]: 417  LLC: 2048
rand_sets[38]: 417
Assign rand_sets[39]: 472  LLC: 2048
rand_sets[39]: 472
Assign rand_sets[40]: 1340  LLC: 2048
rand_sets[40]: 1340
Assign rand_sets[41]: 852  LLC: 2048
rand_sets[41]: 852
Assign rand_sets[42]: 1365  LLC: 2048
rand_sets[42]: 1365
Assign rand_sets[43]: 47  LLC: 2048
rand_sets[43]: 47
Assign rand_sets[44]: 823  LLC: 2048
rand_sets[44]: 823
Assign rand_sets[45]: 686  LLC: 2048
rand_sets[45]: 686
Assign rand_sets[46]: 1637  LLC: 2048
rand_sets[46]: 1637
Assign rand_sets[47]: 1115  LLC: 2048
rand_sets[47]: 1115
Assign rand_sets[48]: 986  LLC: 2048
rand_sets[48]: 986
Assign rand_sets[49]: 258  LLC: 2048
rand_sets[49]: 258
Assign rand_sets[50]: 633  LLC: 2048
rand_sets[50]: 633
Assign rand_sets[51]: 920  LLC: 2048
rand_sets[51]: 920
Assign rand_sets[52]: 204  LLC: 2048
rand_sets[52]: 204
Assign rand_sets[53]: 227  LLC: 2048
rand_sets[53]: 227
Assign rand_sets[54]: 1818  LLC: 2048
rand_sets[54]: 1818
Assign rand_sets[55]: 886  LLC: 2048
rand_sets[55]: 886
Assign rand_sets[56]: 1422  LLC: 2048
rand_sets[56]: 1422
Assign rand_sets[57]: 607  LLC: 2048
rand_sets[57]: 607
Assign rand_sets[58]: 217  LLC: 2048
rand_sets[58]: 217
Assign rand_sets[59]: 1945  LLC: 2048
rand_sets[59]: 1945
Assign rand_sets[60]: 143  LLC: 2048
rand_sets[60]: 143
Assign rand_sets[61]: 1311  LLC: 2048
rand_sets[61]: 1311
Assign rand_sets[62]: 319  LLC: 2048
rand_sets[62]: 319
Assign rand_sets[63]: 1846  LLC: 2048
rand_sets[63]: 1846
Assign rand_sets[64]: 238  LLC: 2048
rand_sets[64]: 238
Assign rand_sets[65]: 67  LLC: 2048
rand_sets[65]: 67
Assign rand_sets[66]: 1912  LLC: 2048
rand_sets[66]: 1912
Assign rand_sets[67]: 1613  LLC: 2048
rand_sets[67]: 1613
Assign rand_sets[68]: 1293  LLC: 2048
rand_sets[68]: 1293
Assign rand_sets[69]: 1018  LLC: 2048
rand_sets[69]: 1018
Assign rand_sets[70]: 1982  LLC: 2048
rand_sets[70]: 1982
Assign rand_sets[71]: 1702  LLC: 2048
rand_sets[71]: 1702
Assign rand_sets[72]: 1498  LLC: 2048
rand_sets[72]: 1498
Assign rand_sets[73]: 228  LLC: 2048
rand_sets[73]: 228
Assign rand_sets[74]: 1414  LLC: 2048
rand_sets[74]: 1414
Assign rand_sets[75]: 1166  LLC: 2048
rand_sets[75]: 1166
Assign rand_sets[76]: 732  LLC: 2048
rand_sets[76]: 732
Assign rand_sets[77]: 297  LLC: 2048
rand_sets[77]: 297
Assign rand_sets[78]: 1133  LLC: 2048
rand_sets[78]: 1133
Assign rand_sets[79]: 846  LLC: 2048
rand_sets[79]: 846
Assign rand_sets[80]: 767  LLC: 2048
rand_sets[80]: 767
Assign rand_sets[81]: 1878  LLC: 2048
rand_sets[81]: 1878
Assign rand_sets[82]: 993  LLC: 2048
rand_sets[82]: 993
Assign rand_sets[83]: 1392  LLC: 2048
rand_sets[83]: 1392
Assign rand_sets[84]: 1568  LLC: 2048
rand_sets[84]: 1568
Assign rand_sets[85]: 1787  LLC: 2048
rand_sets[85]: 1787
Assign rand_sets[86]: 399  LLC: 2048
rand_sets[86]: 399
Assign rand_sets[87]: 1201  LLC: 2048
rand_sets[87]: 1201
Assign rand_sets[88]: 856  LLC: 2048
rand_sets[88]: 856
Assign rand_sets[89]: 773  LLC: 2048
rand_sets[89]: 773
Assign rand_sets[90]: 1680  LLC: 2048
rand_sets[90]: 1680
Assign rand_sets[91]: 1477  LLC: 2048
rand_sets[91]: 1477
Assign rand_sets[92]: 9  LLC: 2048
rand_sets[92]: 9
Assign rand_sets[93]: 1500  LLC: 2048
rand_sets[93]: 1500
Assign rand_sets[94]: 851  LLC: 2048
rand_sets[94]: 851
Assign rand_sets[95]: 973  LLC: 2048
rand_sets[95]: 973
Assign rand_sets[96]: 938  LLC: 2048
rand_sets[96]: 938
Assign rand_sets[97]: 1851  LLC: 2048
rand_sets[97]: 1851
Assign rand_sets[98]: 1608  LLC: 2048
rand_sets[98]: 1608
Assign rand_sets[99]: 1945  LLC: 2048
Assign rand_sets[99]: 1106  LLC: 2048
rand_sets[99]: 1106
Assign rand_sets[100]: 979  LLC: 2048
rand_sets[100]: 979
Assign rand_sets[101]: 338  LLC: 2048
rand_sets[101]: 338
Assign rand_sets[102]: 1693  LLC: 2048
rand_sets[102]: 1693
Assign rand_sets[103]: 6  LLC: 2048
rand_sets[103]: 6
Assign rand_sets[104]: 671  LLC: 2048
rand_sets[104]: 671
Assign rand_sets[105]: 490  LLC: 2048
rand_sets[105]: 490
Assign rand_sets[106]: 1461  LLC: 2048
rand_sets[106]: 1461
Assign rand_sets[107]: 1730  LLC: 2048
rand_sets[107]: 1730
Assign rand_sets[108]: 1030  LLC: 2048
rand_sets[108]: 1030
Assign rand_sets[109]: 19  LLC: 2048
rand_sets[109]: 19
Assign rand_sets[110]: 920  LLC: 2048
Assign rand_sets[110]: 329  LLC: 2048
rand_sets[110]: 329
Assign rand_sets[111]: 1714  LLC: 2048
rand_sets[111]: 1714
Assign rand_sets[112]: 1  LLC: 2048
rand_sets[112]: 1
Assign rand_sets[113]: 1822  LLC: 2048
rand_sets[113]: 1822
Assign rand_sets[114]: 172  LLC: 2048
rand_sets[114]: 172
Assign rand_sets[115]: 1586  LLC: 2048
rand_sets[115]: 1586
Assign rand_sets[116]: 648  LLC: 2048
rand_sets[116]: 648
Assign rand_sets[117]: 1329  LLC: 2048
rand_sets[117]: 1329
Assign rand_sets[118]: 668  LLC: 2048
rand_sets[118]: 668
Assign rand_sets[119]: 1874  LLC: 2048
rand_sets[119]: 1874
Assign rand_sets[120]: 70  LLC: 2048
rand_sets[120]: 70
Assign rand_sets[121]: 661  LLC: 2048
rand_sets[121]: 661
Assign rand_sets[122]: 1649  LLC: 2048
rand_sets[122]: 1649
Assign rand_sets[123]: 1590  LLC: 2048
rand_sets[123]: 1590
Assign rand_sets[124]: 911  LLC: 2048
rand_sets[124]: 911
Assign rand_sets[125]: 1367  LLC: 2048
rand_sets[125]: 1367
Assign rand_sets[126]: 1782  LLC: 2048
rand_sets[126]: 1782
Assign rand_sets[127]: 569  LLC: 2048
rand_sets[127]: 569
Heartbeat CPU 0 instructions: 10000000 cycles: 2987068 heartbeat IPC: 3.34776 cumulative IPC: 3.34776 (Simulation time: 0 hr 0 min 19 sec) 
Heartbeat CPU 0 instructions: 20000003 cycles: 6017318 heartbeat IPC: 3.30006 cumulative IPC: 3.32374 (Simulation time: 0 hr 0 min 39 sec) 
Heartbeat CPU 0 instructions: 30000000 cycles: 8981688 heartbeat IPC: 3.3734 cumulative IPC: 3.34013 (Simulation time: 0 hr 0 min 58 sec) 
Heartbeat CPU 0 instructions: 40000000 cycles: 12020272 heartbeat IPC: 3.29101 cumulative IPC: 3.32771 (Simulation time: 0 hr 1 min 17 sec) 
Heartbeat CPU 0 instructions: 50000003 cycles: 15223917 heartbeat IPC: 3.12145 cumulative IPC: 3.28431 (Simulation time: 0 hr 1 min 38 sec) 
Heartbeat CPU 0 instructions: 60000000 cycles: 18233007 heartbeat IPC: 3.32326 cumulative IPC: 3.29074 (Simulation time: 0 hr 1 min 57 sec) 
Heartbeat CPU 0 instructions: 70000001 cycles: 21221320 heartbeat IPC: 3.34637 cumulative IPC: 3.29857 (Simulation time: 0 hr 2 min 16 sec) 
Heartbeat CPU 0 instructions: 80000001 cycles: 24228330 heartbeat IPC: 3.32556 cumulative IPC: 3.30192 (Simulation time: 0 hr 2 min 36 sec) 
Heartbeat CPU 0 instructions: 90000000 cycles: 27260243 heartbeat IPC: 3.29825 cumulative IPC: 3.30151 (Simulation time: 0 hr 2 min 55 sec) 
Heartbeat CPU 0 instructions: 100000001 cycles: 30210390 heartbeat IPC: 3.38966 cumulative IPC: 3.31012 (Simulation time: 0 hr 3 min 15 sec) 

Warmup complete CPU 0 instructions: 100000001 cycles: 30210390 (Simulation time: 0 hr 3 min 15 sec) 

Heartbeat CPU 0 instructions: 110000000 cycles: 39499341 heartbeat IPC: 1.07655 cumulative IPC: 1.07655 (Simulation time: 0 hr 3 min 28 sec) 
Heartbeat CPU 0 instructions: 120000003 cycles: 49104665 heartbeat IPC: 1.04109 cumulative IPC: 1.05852 (Simulation time: 0 hr 3 min 40 sec) 
Heartbeat CPU 0 instructions: 130000003 cycles: 58818733 heartbeat IPC: 1.02943 cumulative IPC: 1.04865 (Simulation time: 0 hr 3 min 53 sec) 
Heartbeat CPU 0 instructions: 140000000 cycles: 68213690 heartbeat IPC: 1.0644 cumulative IPC: 1.05254 (Simulation time: 0 hr 4 min 6 sec) 
Heartbeat CPU 0 instructions: 150000002 cycles: 77592882 heartbeat IPC: 1.06619 cumulative IPC: 1.05524 (Simulation time: 0 hr 4 min 19 sec) 
Heartbeat CPU 0 instructions: 160000003 cycles: 87211803 heartbeat IPC: 1.03962 cumulative IPC: 1.05261 (Simulation time: 0 hr 4 min 32 sec) 
Heartbeat CPU 0 instructions: 170000000 cycles: 96696458 heartbeat IPC: 1.05433 cumulative IPC: 1.05285 (Simulation time: 0 hr 4 min 44 sec) 
Heartbeat CPU 0 instructions: 180000003 cycles: 105940896 heartbeat IPC: 1.08173 cumulative IPC: 1.05638 (Simulation time: 0 hr 4 min 58 sec) 
Heartbeat CPU 0 instructions: 190000001 cycles: 115319594 heartbeat IPC: 1.06625 cumulative IPC: 1.05746 (Simulation time: 0 hr 5 min 11 sec) 
Heartbeat CPU 0 instructions: 200000001 cycles: 124813546 heartbeat IPC: 1.0533 cumulative IPC: 1.05705 (Simulation time: 0 hr 5 min 24 sec) 
Heartbeat CPU 0 instructions: 210000002 cycles: 134491381 heartbeat IPC: 1.03329 cumulative IPC: 1.05484 (Simulation time: 0 hr 5 min 36 sec) 
Heartbeat CPU 0 instructions: 220000000 cycles: 143878666 heartbeat IPC: 1.06527 cumulative IPC: 1.0557 (Simulation time: 0 hr 5 min 49 sec) 
Heartbeat CPU 0 instructions: 230000001 cycles: 153589548 heartbeat IPC: 1.02977 cumulative IPC: 1.05366 (Simulation time: 0 hr 6 min 2 sec) 
Heartbeat CPU 0 instructions: 240000003 cycles: 163002542 heartbeat IPC: 1.06236 cumulative IPC: 1.05428 (Simulation time: 0 hr 6 min 15 sec) 
Heartbeat CPU 0 instructions: 250000001 cycles: 172451327 heartbeat IPC: 1.05834 cumulative IPC: 1.05455 (Simulation time: 0 hr 6 min 28 sec) 
Heartbeat CPU 0 instructions: 260000002 cycles: 182066118 heartbeat IPC: 1.04006 cumulative IPC: 1.05363 (Simulation time: 0 hr 6 min 40 sec) 
Heartbeat CPU 0 instructions: 270000001 cycles: 191510913 heartbeat IPC: 1.05878 cumulative IPC: 1.05393 (Simulation time: 0 hr 6 min 53 sec) 
Heartbeat CPU 0 instructions: 280000003 cycles: 201049238 heartbeat IPC: 1.0484 cumulative IPC: 1.05362 (Simulation time: 0 hr 7 min 6 sec) 
Heartbeat CPU 0 instructions: 290000000 cycles: 210763649 heartbeat IPC: 1.0294 cumulative IPC: 1.05232 (Simulation time: 0 hr 7 min 18 sec) 
Heartbeat CPU 0 instructions: 300000002 cycles: 220379644 heartbeat IPC: 1.03993 cumulative IPC: 1.05169 (Simulation time: 0 hr 7 min 31 sec) 
Heartbeat CPU 0 instructions: 310000001 cycles: 230127552 heartbeat IPC: 1.02586 cumulative IPC: 1.05044 (Simulation time: 0 hr 7 min 43 sec) 
Heartbeat CPU 0 instructions: 320000002 cycles: 239880216 heartbeat IPC: 1.02536 cumulative IPC: 1.04927 (Simulation time: 0 hr 7 min 56 sec) 
Heartbeat CPU 0 instructions: 330000000 cycles: 249626327 heartbeat IPC: 1.02605 cumulative IPC: 1.04824 (Simulation time: 0 hr 8 min 8 sec) 
Heartbeat CPU 0 instructions: 340000001 cycles: 259243282 heartbeat IPC: 1.03983 cumulative IPC: 1.04788 (Simulation time: 0 hr 8 min 21 sec) 
Heartbeat CPU 0 instructions: 350000001 cycles: 268953505 heartbeat IPC: 1.02984 cumulative IPC: 1.04715 (Simulation time: 0 hr 8 min 33 sec) 
Heartbeat CPU 0 instructions: 360000000 cycles: 278644029 heartbeat IPC: 1.03194 cumulative IPC: 1.04656 (Simulation time: 0 hr 8 min 46 sec) 
Heartbeat CPU 0 instructions: 370000000 cycles: 288288106 heartbeat IPC: 1.03691 cumulative IPC: 1.0462 (Simulation time: 0 hr 8 min 59 sec) 
Heartbeat CPU 0 instructions: 380000002 cycles: 297149936 heartbeat IPC: 1.12844 cumulative IPC: 1.04893 (Simulation time: 0 hr 9 min 13 sec) 
Heartbeat CPU 0 instructions: 390000002 cycles: 306568159 heartbeat IPC: 1.06177 cumulative IPC: 1.04936 (Simulation time: 0 hr 9 min 26 sec) 
Heartbeat CPU 0 instructions: 400000001 cycles: 316222574 heartbeat IPC: 1.0358 cumulative IPC: 1.04891 (Simulation time: 0 hr 9 min 38 sec) 
Heartbeat CPU 0 instructions: 410000002 cycles: 325904363 heartbeat IPC: 1.03287 cumulative IPC: 1.04838 (Simulation time: 0 hr 9 min 51 sec) 
Heartbeat CPU 0 instructions: 420000000 cycles: 335620023 heartbeat IPC: 1.02927 cumulative IPC: 1.04777 (Simulation time: 0 hr 10 min 4 sec) 
Heartbeat CPU 0 instructions: 430000000 cycles: 344727326 heartbeat IPC: 1.09802 cumulative IPC: 1.04923 (Simulation time: 0 hr 10 min 17 sec) 
Heartbeat CPU 0 instructions: 440000000 cycles: 354069786 heartbeat IPC: 1.07038 cumulative IPC: 1.04984 (Simulation time: 0 hr 10 min 31 sec) 
Heartbeat CPU 0 instructions: 450000003 cycles: 362562180 heartbeat IPC: 1.17752 cumulative IPC: 1.0531 (Simulation time: 0 hr 10 min 46 sec) 
Heartbeat CPU 0 instructions: 460000000 cycles: 372260690 heartbeat IPC: 1.03109 cumulative IPC: 1.05248 (Simulation time: 0 hr 10 min 58 sec) 
Heartbeat CPU 0 instructions: 470000002 cycles: 381935834 heartbeat IPC: 1.03358 cumulative IPC: 1.05196 (Simulation time: 0 hr 11 min 11 sec) 
Heartbeat CPU 0 instructions: 480000002 cycles: 391552042 heartbeat IPC: 1.03991 cumulative IPC: 1.05164 (Simulation time: 0 hr 11 min 24 sec) 
Heartbeat CPU 0 instructions: 490000002 cycles: 415680152 heartbeat IPC: 0.414454 cumulative IPC: 1.01175 (Simulation time: 0 hr 11 min 53 sec) 
Heartbeat CPU 0 instructions: 500000000 cycles: 422492470 heartbeat IPC: 1.46793 cumulative IPC: 1.01967 (Simulation time: 0 hr 12 min 17 sec) 
Heartbeat CPU 0 instructions: 510000002 cycles: 428913979 heartbeat IPC: 1.55727 cumulative IPC: 1.02833 (Simulation time: 0 hr 12 min 41 sec) 
Heartbeat CPU 0 instructions: 520000000 cycles: 435452006 heartbeat IPC: 1.52951 cumulative IPC: 1.03642 (Simulation time: 0 hr 13 min 5 sec) 
Heartbeat CPU 0 instructions: 530000000 cycles: 442295864 heartbeat IPC: 1.46116 cumulative IPC: 1.04347 (Simulation time: 0 hr 13 min 29 sec) 
Heartbeat CPU 0 instructions: 540000003 cycles: 449171107 heartbeat IPC: 1.45449 cumulative IPC: 1.05022 (Simulation time: 0 hr 13 min 54 sec) 
Heartbeat CPU 0 instructions: 550000000 cycles: 455916308 heartbeat IPC: 1.48254 cumulative IPC: 1.05707 (Simulation time: 0 hr 14 min 18 sec) 
Heartbeat CPU 0 instructions: 560000000 cycles: 466181937 heartbeat IPC: 0.974124 cumulative IPC: 1.05511 (Simulation time: 0 hr 14 min 44 sec) 
Heartbeat CPU 0 instructions: 570000001 cycles: 488022252 heartbeat IPC: 0.457869 cumulative IPC: 1.02662 (Simulation time: 0 hr 15 min 18 sec) 
Heartbeat CPU 0 instructions: 580000002 cycles: 494703425 heartbeat IPC: 1.49674 cumulative IPC: 1.03338 (Simulation time: 0 hr 15 min 42 sec) 
Heartbeat CPU 0 instructions: 590000000 cycles: 501139798 heartbeat IPC: 1.55367 cumulative IPC: 1.0405 (Simulation time: 0 hr 16 min 6 sec) 
Heartbeat CPU 0 instructions: 600000000 cycles: 507851252 heartbeat IPC: 1.48999 cumulative IPC: 1.04681 (Simulation time: 0 hr 16 min 30 sec) 
Heartbeat CPU 0 instructions: 610000001 cycles: 514849112 heartbeat IPC: 1.42901 cumulative IPC: 1.05233 (Simulation time: 0 hr 16 min 54 sec) 
Heartbeat CPU 0 instructions: 620000001 cycles: 521620598 heartbeat IPC: 1.47678 cumulative IPC: 1.05818 (Simulation time: 0 hr 17 min 19 sec) 
Heartbeat CPU 0 instructions: 630000003 cycles: 528149401 heartbeat IPC: 1.53167 cumulative IPC: 1.06439 (Simulation time: 0 hr 17 min 42 sec) 
Heartbeat CPU 0 instructions: 640000000 cycles: 550349208 heartbeat IPC: 0.450454 cumulative IPC: 1.03818 (Simulation time: 0 hr 18 min 17 sec) 
Heartbeat CPU 0 instructions: 650000000 cycles: 557091940 heartbeat IPC: 1.48308 cumulative IPC: 1.04388 (Simulation time: 0 hr 18 min 41 sec) 
Heartbeat CPU 0 instructions: 660000000 cycles: 563523905 heartbeat IPC: 1.55473 cumulative IPC: 1.05004 (Simulation time: 0 hr 19 min 5 sec) 
Heartbeat CPU 0 instructions: 670000002 cycles: 570148414 heartbeat IPC: 1.50955 cumulative IPC: 1.05568 (Simulation time: 0 hr 19 min 29 sec) 
Heartbeat CPU 0 instructions: 680000002 cycles: 577056177 heartbeat IPC: 1.44765 cumulative IPC: 1.06063 (Simulation time: 0 hr 19 min 54 sec) 
Heartbeat CPU 0 instructions: 690000001 cycles: 583915189 heartbeat IPC: 1.45794 cumulative IPC: 1.06555 (Simulation time: 0 hr 20 min 18 sec) 
Heartbeat CPU 0 instructions: 700000003 cycles: 590609233 heartbeat IPC: 1.49387 cumulative IPC: 1.07067 (Simulation time: 0 hr 20 min 42 sec) 
Heartbeat CPU 0 instructions: 710000001 cycles: 610493426 heartbeat IPC: 0.502912 cumulative IPC: 1.05121 (Simulation time: 0 hr 21 min 15 sec) 
Heartbeat CPU 0 instructions: 720000002 cycles: 619939373 heartbeat IPC: 1.05866 cumulative IPC: 1.05133 (Simulation time: 0 hr 21 min 40 sec) 
Heartbeat CPU 0 instructions: 730000002 cycles: 626502160 heartbeat IPC: 1.52374 cumulative IPC: 1.05653 (Simulation time: 0 hr 22 min 4 sec) 
Heartbeat CPU 0 instructions: 740000002 cycles: 632987861 heartbeat IPC: 1.54185 cumulative IPC: 1.06175 (Simulation time: 0 hr 22 min 28 sec) 
Heartbeat CPU 0 instructions: 750000000 cycles: 639756767 heartbeat IPC: 1.47734 cumulative IPC: 1.06637 (Simulation time: 0 hr 22 min 52 sec) 
Heartbeat CPU 0 instructions: 760000000 cycles: 646737184 heartbeat IPC: 1.43258 cumulative IPC: 1.07051 (Simulation time: 0 hr 23 min 17 sec) 
Heartbeat CPU 0 instructions: 770000000 cycles: 653535389 heartbeat IPC: 1.47098 cumulative IPC: 1.07488 (Simulation time: 0 hr 23 min 41 sec) 
Heartbeat CPU 0 instructions: 780000002 cycles: 659945713 heartbeat IPC: 1.55998 cumulative IPC: 1.07982 (Simulation time: 0 hr 24 min 5 sec) 
Heartbeat CPU 0 instructions: 790000000 cycles: 681793407 heartbeat IPC: 0.457714 cumulative IPC: 1.05896 (Simulation time: 0 hr 24 min 39 sec) 
Heartbeat CPU 0 instructions: 800000000 cycles: 688554633 heartbeat IPC: 1.47902 cumulative IPC: 1.06327 (Simulation time: 0 hr 25 min 4 sec) 
Heartbeat CPU 0 instructions: 810000000 cycles: 694957221 heartbeat IPC: 1.56187 cumulative IPC: 1.06808 (Simulation time: 0 hr 25 min 28 sec) 
Heartbeat CPU 0 instructions: 820000000 cycles: 701598805 heartbeat IPC: 1.50566 cumulative IPC: 1.0724 (Simulation time: 0 hr 25 min 52 sec) 
Heartbeat CPU 0 instructions: 830000002 cycles: 708558912 heartbeat IPC: 1.43676 cumulative IPC: 1.07614 (Simulation time: 0 hr 26 min 16 sec) 
Heartbeat CPU 0 instructions: 840000002 cycles: 715388760 heartbeat IPC: 1.46416 cumulative IPC: 1.08001 (Simulation time: 0 hr 26 min 40 sec) 
Heartbeat CPU 0 instructions: 850000001 cycles: 722015562 heartbeat IPC: 1.50902 cumulative IPC: 1.08412 (Simulation time: 0 hr 27 min 4 sec) 
Heartbeat CPU 0 instructions: 860000000 cycles: 743948807 heartbeat IPC: 0.455929 cumulative IPC: 1.06482 (Simulation time: 0 hr 27 min 38 sec) 
Heartbeat CPU 0 instructions: 870000002 cycles: 750718247 heartbeat IPC: 1.47723 cumulative IPC: 1.06869 (Simulation time: 0 hr 28 min 2 sec) 
Heartbeat CPU 0 instructions: 880000000 cycles: 757206546 heartbeat IPC: 1.54124 cumulative IPC: 1.07291 (Simulation time: 0 hr 28 min 26 sec) 
Heartbeat CPU 0 instructions: 890000002 cycles: 763732331 heartbeat IPC: 1.53238 cumulative IPC: 1.077 (Simulation time: 0 hr 28 min 50 sec) 
Heartbeat CPU 0 instructions: 900000002 cycles: 770577607 heartbeat IPC: 1.46086 cumulative IPC: 1.08054 (Simulation time: 0 hr 29 min 14 sec) 
Heartbeat CPU 0 instructions: 910000000 cycles: 777508131 heartbeat IPC: 1.44289 cumulative IPC: 1.08391 (Simulation time: 0 hr 29 min 39 sec) 
Heartbeat CPU 0 instructions: 920000001 cycles: 784297289 heartbeat IPC: 1.47294 cumulative IPC: 1.08741 (Simulation time: 0 hr 30 min 3 sec) 
Heartbeat CPU 0 instructions: 930000003 cycles: 790732874 heartbeat IPC: 1.55386 cumulative IPC: 1.09135 (Simulation time: 0 hr 30 min 27 sec) 
Heartbeat CPU 0 instructions: 940000000 cycles: 813021784 heartbeat IPC: 0.448653 cumulative IPC: 1.07306 (Simulation time: 0 hr 31 min 1 sec) 
Heartbeat CPU 0 instructions: 950000000 cycles: 819741497 heartbeat IPC: 1.48816 cumulative IPC: 1.07659 (Simulation time: 0 hr 31 min 25 sec) 
Heartbeat CPU 0 instructions: 960000001 cycles: 826168261 heartbeat IPC: 1.55599 cumulative IPC: 1.08046 (Simulation time: 0 hr 31 min 49 sec) 
Heartbeat CPU 0 instructions: 970000000 cycles: 832849557 heartbeat IPC: 1.49672 cumulative IPC: 1.08392 (Simulation time: 0 hr 32 min 14 sec) 
Heartbeat CPU 0 instructions: 980000001 cycles: 839825640 heartbeat IPC: 1.43347 cumulative IPC: 1.08694 (Simulation time: 0 hr 32 min 38 sec) 
Heartbeat CPU 0 instructions: 990000000 cycles: 846623359 heartbeat IPC: 1.47108 cumulative IPC: 1.09013 (Simulation time: 0 hr 33 min 2 sec) 
Heartbeat CPU 0 instructions: 1000000003 cycles: 853179795 heartbeat IPC: 1.52522 cumulative IPC: 1.0936 (Simulation time: 0 hr 33 min 26 sec) 
Heartbeat CPU 0 instructions: 1010000000 cycles: 875446251 heartbeat IPC: 0.449106 cumulative IPC: 1.07662 (Simulation time: 0 hr 34 min 0 sec) 
Heartbeat CPU 0 instructions: 1020000002 cycles: 882223662 heartbeat IPC: 1.47549 cumulative IPC: 1.0798 (Simulation time: 0 hr 34 min 24 sec) 
Heartbeat CPU 0 instructions: 1030000000 cycles: 888681403 heartbeat IPC: 1.54853 cumulative IPC: 1.08332 (Simulation time: 0 hr 34 min 49 sec) 
Heartbeat CPU 0 instructions: 1040000000 cycles: 895264405 heartbeat IPC: 1.51906 cumulative IPC: 1.08664 (Simulation time: 0 hr 35 min 13 sec) 
Heartbeat CPU 0 instructions: 1050000001 cycles: 902148394 heartbeat IPC: 1.45265 cumulative IPC: 1.08953 (Simulation time: 0 hr 35 min 37 sec) 
Heartbeat CPU 0 instructions: 1060000000 cycles: 909031745 heartbeat IPC: 1.45278 cumulative IPC: 1.09237 (Simulation time: 0 hr 36 min 2 sec) 
Heartbeat CPU 0 instructions: 1070000001 cycles: 915788225 heartbeat IPC: 1.48006 cumulative IPC: 1.09533 (Simulation time: 0 hr 36 min 26 sec) 
Heartbeat CPU 0 instructions: 1080000002 cycles: 931357582 heartbeat IPC: 0.642287 cumulative IPC: 1.0875 (Simulation time: 0 hr 36 min 57 sec) 
Heartbeat CPU 0 instructions: 1090000001 cycles: 943728315 heartbeat IPC: 0.808359 cumulative IPC: 1.08372 (Simulation time: 0 hr 37 min 24 sec) 
Heartbeat CPU 0 instructions: 1100000000 cycles: 950355841 heartbeat IPC: 1.50886 cumulative IPC: 1.08678 (Simulation time: 0 hr 37 min 48 sec) 
Finished CPU 0 instructions: 1000000000 cycles: 920145452 cumulative IPC: 1.08678 (Simulation time: 0 hr 37 min 48 sec) 

ChampSim completed all CPUs

Region of Interest Statistics

CPU 0 cumulative IPC: 1.08678 instructions: 1000000000 cycles: 920145452
L1D TOTAL     ACCESS:  230572117  HIT:  228332424  MISS:    2239693
L1D LOAD      ACCESS:  142297007  HIT:  140952302  MISS:    1344705
L1D RFO       ACCESS:   88275110  HIT:   87380122  MISS:     894988
L1D PREFETCH  ACCESS:          0  HIT:          0  MISS:          0
L1D WRITEBACK ACCESS:          0  HIT:          0  MISS:          0
L1D PREFETCH  REQUESTED:          0  ISSUED:          0  USEFUL:          0  USELESS:          0
L1D AVERAGE MISS LATENCY: 225.228 cycles
L1I TOTAL     ACCESS:  186052614  HIT:  186052543  MISS:         71
L1I LOAD      ACCESS:  186052614  HIT:  186052543  MISS:         71
L1I RFO       ACCESS:          0  HIT:          0  MISS:          0
L1I PREFETCH  ACCESS:          0  HIT:          0  MISS:          0
L1I WRITEBACK ACCESS:          0  HIT:          0  MISS:          0
L1I PREFETCH  REQUESTED:          0  ISSUED:          0  USEFUL:          0  USELESS:          0
L1I AVERAGE MISS LATENCY: 231.718 cycles
L2C TOTAL     ACCESS:    3134864  HIT:     894551  MISS:    2240313
L2C LOAD      ACCESS:    1344776  HIT:        398  MISS:    1344378
L2C RFO       ACCESS:     894985  HIT:        896  MISS:     894089
L2C PREFETCH  ACCESS:          0  HIT:          0  MISS:          0
L2C WRITEBACK ACCESS:     895103  HIT:     893257  MISS:       1846
L2C PREFETCH  REQUESTED:          0  ISSUED:          0  USEFUL:          0  USELESS:          0
L2C AVERAGE MISS LATENCY: 212.717 cycles
LLC TOTAL     ACCESS:    3132607  HIT:     247458  MISS:    2885149
LLC LOAD      ACCESS:    1344378  HIT:     143762  MISS:    1200616
LLC RFO       ACCESS:     894089  HIT:      32470  MISS:     861619
LLC PREFETCH  ACCESS:          0  HIT:          0  MISS:          0
LLC WRITEBACK ACCESS:     894140  HIT:      71226  MISS:     822914
LLC PREFETCH  REQUESTED:          0  ISSUED:          0  USEFUL:          0  USELESS:          0
LLC AVERAGE MISS LATENCY: 133.858 cycles
Major fault: 0 Minor fault: 16776

DRAM Statistics
 CHANNEL 0
 RQ ROW_BUFFER_HIT:     374580  ROW_BUFFER_MISS:    1687523
 DBUS_CONGESTED:     576149
 WQ ROW_BUFFER_HIT:     438703  ROW_BUFFER_MISS:     396832  FULL:          0

 AVG_CONGESTED_CYCLE: 6

CPU 0 Branch Prediction Accuracy: 91.4265% MPKI: 10.8386 Average ROB Occupancy at Mispredict: 17.0582

Branch types
NOT_BRANCH: 873580538 87.3581%
BRANCH_DIRECT_JUMP: 10632506 1.06325%
BRANCH_INDIRECT: 238987 0.0238987%
BRANCH_CONDITIONAL: 92907924 9.29079%
BRANCH_DIRECT_CALL: 11320021 1.132%
BRANCH_INDIRECT_CALL: 0 0%
BRANCH_RETURN: 11320025 1.132%
BRANCH_OTHER: 0 0%

