
*** ChampSim Multicore Out-of-Order Simulator ***

Warmup Instructions: 100000000
Simulation Instructions: 1000000000
Number of CPUs: 1
LLC sets: 2048
LLC ways: 16
Off-chip DRAM Size: 4096 MB Channels: 1 Width: 64-bit Data Rate: 3200 MT/s

CPU 0 runs /scratch/user/kevin.weston/dpc3-traces/654.champsimtrace.xz
CPU 0 Bimodal branch predictor
Heartbeat CPU 0 instructions: 10000000 cycles: 2987068 heartbeat IPC: 3.34776 cumulative IPC: 3.34776 (Simulation time: 0 hr 0 min 22 sec) 
Heartbeat CPU 0 instructions: 20000003 cycles: 6017318 heartbeat IPC: 3.30006 cumulative IPC: 3.32374 (Simulation time: 0 hr 0 min 43 sec) 
Heartbeat CPU 0 instructions: 30000000 cycles: 8981688 heartbeat IPC: 3.3734 cumulative IPC: 3.34013 (Simulation time: 0 hr 1 min 4 sec) 
Heartbeat CPU 0 instructions: 40000000 cycles: 12020272 heartbeat IPC: 3.29101 cumulative IPC: 3.32771 (Simulation time: 0 hr 1 min 26 sec) 
Heartbeat CPU 0 instructions: 50000003 cycles: 15223917 heartbeat IPC: 3.12145 cumulative IPC: 3.28431 (Simulation time: 0 hr 1 min 48 sec) 
Heartbeat CPU 0 instructions: 60000000 cycles: 18233007 heartbeat IPC: 3.32326 cumulative IPC: 3.29074 (Simulation time: 0 hr 2 min 10 sec) 
Heartbeat CPU 0 instructions: 70000001 cycles: 21221320 heartbeat IPC: 3.34637 cumulative IPC: 3.29857 (Simulation time: 0 hr 2 min 31 sec) 
Heartbeat CPU 0 instructions: 80000001 cycles: 24228330 heartbeat IPC: 3.32556 cumulative IPC: 3.30192 (Simulation time: 0 hr 2 min 53 sec) 
Heartbeat CPU 0 instructions: 90000000 cycles: 27260243 heartbeat IPC: 3.29825 cumulative IPC: 3.30151 (Simulation time: 0 hr 3 min 14 sec) 
Heartbeat CPU 0 instructions: 100000001 cycles: 30210390 heartbeat IPC: 3.38966 cumulative IPC: 3.31012 (Simulation time: 0 hr 3 min 36 sec) 

Warmup complete CPU 0 instructions: 100000001 cycles: 30210390 (Simulation time: 0 hr 3 min 36 sec) 

Heartbeat CPU 0 instructions: 110000000 cycles: 39499341 heartbeat IPC: 1.07655 cumulative IPC: 1.07655 (Simulation time: 0 hr 3 min 51 sec) 
Heartbeat CPU 0 instructions: 120000003 cycles: 49104665 heartbeat IPC: 1.04109 cumulative IPC: 1.05852 (Simulation time: 0 hr 4 min 5 sec) 
Heartbeat CPU 0 instructions: 130000003 cycles: 58818733 heartbeat IPC: 1.02943 cumulative IPC: 1.04865 (Simulation time: 0 hr 4 min 19 sec) 
Heartbeat CPU 0 instructions: 140000000 cycles: 68200391 heartbeat IPC: 1.06591 cumulative IPC: 1.05291 (Simulation time: 0 hr 4 min 34 sec) 
Heartbeat CPU 0 instructions: 150000002 cycles: 77570582 heartbeat IPC: 1.06721 cumulative IPC: 1.05574 (Simulation time: 0 hr 4 min 49 sec) 
Heartbeat CPU 0 instructions: 160000003 cycles: 87184403 heartbeat IPC: 1.04017 cumulative IPC: 1.05311 (Simulation time: 0 hr 5 min 3 sec) 
Heartbeat CPU 0 instructions: 170000000 cycles: 96668157 heartbeat IPC: 1.05443 cumulative IPC: 1.0533 (Simulation time: 0 hr 5 min 18 sec) 
Heartbeat CPU 0 instructions: 180000003 cycles: 105923395 heartbeat IPC: 1.08047 cumulative IPC: 1.05662 (Simulation time: 0 hr 5 min 33 sec) 
Heartbeat CPU 0 instructions: 190000001 cycles: 115310693 heartbeat IPC: 1.06527 cumulative IPC: 1.05758 (Simulation time: 0 hr 5 min 48 sec) 
Heartbeat CPU 0 instructions: 200000001 cycles: 124816239 heartbeat IPC: 1.05202 cumulative IPC: 1.05702 (Simulation time: 0 hr 6 min 2 sec) 
Heartbeat CPU 0 instructions: 210000002 cycles: 134499274 heartbeat IPC: 1.03273 cumulative IPC: 1.05476 (Simulation time: 0 hr 6 min 16 sec) 
Heartbeat CPU 0 instructions: 220000000 cycles: 143906360 heartbeat IPC: 1.06303 cumulative IPC: 1.05545 (Simulation time: 0 hr 6 min 31 sec) 
Heartbeat CPU 0 instructions: 230000001 cycles: 153620642 heartbeat IPC: 1.02941 cumulative IPC: 1.0534 (Simulation time: 0 hr 6 min 45 sec) 
Heartbeat CPU 0 instructions: 240000003 cycles: 163045437 heartbeat IPC: 1.06103 cumulative IPC: 1.05394 (Simulation time: 0 hr 7 min 0 sec) 
Heartbeat CPU 0 instructions: 250000001 cycles: 172506112 heartbeat IPC: 1.05701 cumulative IPC: 1.05414 (Simulation time: 0 hr 7 min 15 sec) 
Heartbeat CPU 0 instructions: 260000002 cycles: 182129904 heartbeat IPC: 1.03909 cumulative IPC: 1.05319 (Simulation time: 0 hr 7 min 29 sec) 
Heartbeat CPU 0 instructions: 270000001 cycles: 191601289 heartbeat IPC: 1.05581 cumulative IPC: 1.05334 (Simulation time: 0 hr 7 min 44 sec) 
Heartbeat CPU 0 instructions: 280000003 cycles: 201162215 heartbeat IPC: 1.04592 cumulative IPC: 1.05293 (Simulation time: 0 hr 7 min 58 sec) 
Heartbeat CPU 0 instructions: 290000000 cycles: 210885327 heartbeat IPC: 1.02848 cumulative IPC: 1.05161 (Simulation time: 0 hr 8 min 12 sec) 
Heartbeat CPU 0 instructions: 300000002 cycles: 220533614 heartbeat IPC: 1.03645 cumulative IPC: 1.05084 (Simulation time: 0 hr 8 min 27 sec) 
Heartbeat CPU 0 instructions: 310000001 cycles: 230286822 heartbeat IPC: 1.0253 cumulative IPC: 1.0496 (Simulation time: 0 hr 8 min 41 sec) 
Heartbeat CPU 0 instructions: 320000002 cycles: 240036478 heartbeat IPC: 1.02568 cumulative IPC: 1.04849 (Simulation time: 0 hr 8 min 55 sec) 
Heartbeat CPU 0 instructions: 330000000 cycles: 249787989 heartbeat IPC: 1.02548 cumulative IPC: 1.04747 (Simulation time: 0 hr 9 min 9 sec) 
Heartbeat CPU 0 instructions: 340000001 cycles: 259438623 heartbeat IPC: 1.0362 cumulative IPC: 1.04699 (Simulation time: 0 hr 9 min 24 sec) 
Heartbeat CPU 0 instructions: 350000001 cycles: 269162827 heartbeat IPC: 1.02836 cumulative IPC: 1.04623 (Simulation time: 0 hr 9 min 38 sec) 
Heartbeat CPU 0 instructions: 360000000 cycles: 278863651 heartbeat IPC: 1.03084 cumulative IPC: 1.04563 (Simulation time: 0 hr 9 min 52 sec) 
Heartbeat CPU 0 instructions: 370000000 cycles: 288525828 heartbeat IPC: 1.03496 cumulative IPC: 1.04523 (Simulation time: 0 hr 10 min 6 sec) 
Heartbeat CPU 0 instructions: 380000002 cycles: 297482038 heartbeat IPC: 1.11654 cumulative IPC: 1.04762 (Simulation time: 0 hr 10 min 22 sec) 
Heartbeat CPU 0 instructions: 390000002 cycles: 306935032 heartbeat IPC: 1.05787 cumulative IPC: 1.04797 (Simulation time: 0 hr 10 min 37 sec) 
Heartbeat CPU 0 instructions: 400000001 cycles: 316599820 heartbeat IPC: 1.03468 cumulative IPC: 1.04752 (Simulation time: 0 hr 10 min 52 sec) 
Heartbeat CPU 0 instructions: 410000002 cycles: 326289196 heartbeat IPC: 1.03206 cumulative IPC: 1.04702 (Simulation time: 0 hr 11 min 6 sec) 
Heartbeat CPU 0 instructions: 420000000 cycles: 336015056 heartbeat IPC: 1.02819 cumulative IPC: 1.04642 (Simulation time: 0 hr 11 min 20 sec) 
Heartbeat CPU 0 instructions: 430000000 cycles: 345163129 heartbeat IPC: 1.09313 cumulative IPC: 1.04778 (Simulation time: 0 hr 11 min 36 sec) 
Heartbeat CPU 0 instructions: 440000000 cycles: 354529972 heartbeat IPC: 1.0676 cumulative IPC: 1.04835 (Simulation time: 0 hr 11 min 51 sec) 
Heartbeat CPU 0 instructions: 450000003 cycles: 363086752 heartbeat IPC: 1.16866 cumulative IPC: 1.05144 (Simulation time: 0 hr 12 min 8 sec) 
Heartbeat CPU 0 instructions: 460000000 cycles: 372780862 heartbeat IPC: 1.03155 cumulative IPC: 1.05088 (Simulation time: 0 hr 12 min 22 sec) 
Heartbeat CPU 0 instructions: 470000002 cycles: 382447606 heartbeat IPC: 1.03447 cumulative IPC: 1.05043 (Simulation time: 0 hr 12 min 36 sec) 
Heartbeat CPU 0 instructions: 480000002 cycles: 392058731 heartbeat IPC: 1.04046 cumulative IPC: 1.05016 (Simulation time: 0 hr 12 min 51 sec) 
Heartbeat CPU 0 instructions: 490000002 cycles: 416721797 heartbeat IPC: 0.405465 cumulative IPC: 1.00903 (Simulation time: 0 hr 13 min 22 sec) 
Heartbeat CPU 0 instructions: 500000000 cycles: 423819936 heartbeat IPC: 1.40882 cumulative IPC: 1.01624 (Simulation time: 0 hr 13 min 48 sec) 
Heartbeat CPU 0 instructions: 510000002 cycles: 430685361 heartbeat IPC: 1.45657 cumulative IPC: 1.02378 (Simulation time: 0 hr 14 min 14 sec) 
Heartbeat CPU 0 instructions: 520000000 cycles: 437571962 heartbeat IPC: 1.45209 cumulative IPC: 1.03103 (Simulation time: 0 hr 14 min 41 sec) 
Heartbeat CPU 0 instructions: 530000000 cycles: 444359469 heartbeat IPC: 1.47329 cumulative IPC: 1.03827 (Simulation time: 0 hr 15 min 7 sec) 
Heartbeat CPU 0 instructions: 540000003 cycles: 451264774 heartbeat IPC: 1.44816 cumulative IPC: 1.045 (Simulation time: 0 hr 15 min 33 sec) 
Heartbeat CPU 0 instructions: 550000000 cycles: 458131998 heartbeat IPC: 1.45619 cumulative IPC: 1.05159 (Simulation time: 0 hr 15 min 59 sec) 
Heartbeat CPU 0 instructions: 560000000 cycles: 469980653 heartbeat IPC: 0.843978 cumulative IPC: 1.046 (Simulation time: 0 hr 16 min 28 sec) 
Heartbeat CPU 0 instructions: 570000001 cycles: 492781166 heartbeat IPC: 0.438587 cumulative IPC: 1.01606 (Simulation time: 0 hr 17 min 4 sec) 
Heartbeat CPU 0 instructions: 580000002 cycles: 499718608 heartbeat IPC: 1.44145 cumulative IPC: 1.02235 (Simulation time: 0 hr 17 min 30 sec) 
Heartbeat CPU 0 instructions: 590000000 cycles: 506598014 heartbeat IPC: 1.45361 cumulative IPC: 1.02857 (Simulation time: 0 hr 17 min 56 sec) 
Heartbeat CPU 0 instructions: 600000000 cycles: 513419592 heartbeat IPC: 1.46594 cumulative IPC: 1.03475 (Simulation time: 0 hr 18 min 23 sec) 
Heartbeat CPU 0 instructions: 610000001 cycles: 520248102 heartbeat IPC: 1.46445 cumulative IPC: 1.04074 (Simulation time: 0 hr 18 min 49 sec) 
Heartbeat CPU 0 instructions: 620000001 cycles: 527155550 heartbeat IPC: 1.44771 cumulative IPC: 1.04639 (Simulation time: 0 hr 19 min 15 sec) 
Heartbeat CPU 0 instructions: 630000003 cycles: 534097931 heartbeat IPC: 1.44043 cumulative IPC: 1.05182 (Simulation time: 0 hr 19 min 41 sec) 
Heartbeat CPU 0 instructions: 640000000 cycles: 557645868 heartbeat IPC: 0.424666 cumulative IPC: 1.02382 (Simulation time: 0 hr 20 min 18 sec) 
Heartbeat CPU 0 instructions: 650000000 cycles: 564709727 heartbeat IPC: 1.41566 cumulative IPC: 1.029 (Simulation time: 0 hr 20 min 44 sec) 
Heartbeat CPU 0 instructions: 660000000 cycles: 571567648 heartbeat IPC: 1.45817 cumulative IPC: 1.03444 (Simulation time: 0 hr 21 min 10 sec) 
Heartbeat CPU 0 instructions: 670000002 cycles: 578408629 heartbeat IPC: 1.46178 cumulative IPC: 1.03977 (Simulation time: 0 hr 21 min 36 sec) 
Heartbeat CPU 0 instructions: 680000002 cycles: 585199991 heartbeat IPC: 1.47246 cumulative IPC: 1.04506 (Simulation time: 0 hr 22 min 3 sec) 
Heartbeat CPU 0 instructions: 690000001 cycles: 592115209 heartbeat IPC: 1.44609 cumulative IPC: 1.05 (Simulation time: 0 hr 22 min 29 sec) 
Heartbeat CPU 0 instructions: 700000003 cycles: 598989972 heartbeat IPC: 1.4546 cumulative IPC: 1.05489 (Simulation time: 0 hr 22 min 55 sec) 
Heartbeat CPU 0 instructions: 710000001 cycles: 620251151 heartbeat IPC: 0.470341 cumulative IPC: 1.03383 (Simulation time: 0 hr 23 min 30 sec) 
Heartbeat CPU 0 instructions: 720000002 cycles: 630059447 heartbeat IPC: 1.01955 cumulative IPC: 1.03359 (Simulation time: 0 hr 23 min 58 sec) 
Heartbeat CPU 0 instructions: 730000002 cycles: 636924131 heartbeat IPC: 1.45673 cumulative IPC: 1.03838 (Simulation time: 0 hr 24 min 24 sec) 
Heartbeat CPU 0 instructions: 740000002 cycles: 643788694 heartbeat IPC: 1.45676 cumulative IPC: 1.04306 (Simulation time: 0 hr 24 min 50 sec) 
Heartbeat CPU 0 instructions: 750000000 cycles: 650605094 heartbeat IPC: 1.46705 cumulative IPC: 1.04772 (Simulation time: 0 hr 25 min 16 sec) 
Heartbeat CPU 0 instructions: 760000000 cycles: 657463654 heartbeat IPC: 1.45803 cumulative IPC: 1.05221 (Simulation time: 0 hr 25 min 42 sec) 
Heartbeat CPU 0 instructions: 770000000 cycles: 664349255 heartbeat IPC: 1.45231 cumulative IPC: 1.05655 (Simulation time: 0 hr 26 min 8 sec) 
Heartbeat CPU 0 instructions: 780000002 cycles: 671305816 heartbeat IPC: 1.43749 cumulative IPC: 1.06068 (Simulation time: 0 hr 26 min 35 sec) 
Heartbeat CPU 0 instructions: 790000000 cycles: 694477764 heartbeat IPC: 0.431556 cumulative IPC: 1.03874 (Simulation time: 0 hr 27 min 11 sec) 
Heartbeat CPU 0 instructions: 800000000 cycles: 701474967 heartbeat IPC: 1.42914 cumulative IPC: 1.04281 (Simulation time: 0 hr 27 min 38 sec) 
Heartbeat CPU 0 instructions: 810000000 cycles: 708338335 heartbeat IPC: 1.45701 cumulative IPC: 1.047 (Simulation time: 0 hr 28 min 4 sec) 
Heartbeat CPU 0 instructions: 820000000 cycles: 715173521 heartbeat IPC: 1.46302 cumulative IPC: 1.05115 (Simulation time: 0 hr 28 min 30 sec) 
Heartbeat CPU 0 instructions: 830000002 cycles: 721960895 heartbeat IPC: 1.47332 cumulative IPC: 1.05529 (Simulation time: 0 hr 28 min 56 sec) 
Heartbeat CPU 0 instructions: 840000002 cycles: 728879856 heartbeat IPC: 1.4453 cumulative IPC: 1.05916 (Simulation time: 0 hr 29 min 22 sec) 
Heartbeat CPU 0 instructions: 850000001 cycles: 735778691 heartbeat IPC: 1.44952 cumulative IPC: 1.06297 (Simulation time: 0 hr 29 min 49 sec) 
Heartbeat CPU 0 instructions: 860000000 cycles: 759122059 heartbeat IPC: 0.428387 cumulative IPC: 1.04265 (Simulation time: 0 hr 30 min 25 sec) 
Heartbeat CPU 0 instructions: 870000002 cycles: 766254314 heartbeat IPC: 1.40208 cumulative IPC: 1.04613 (Simulation time: 0 hr 30 min 52 sec) 
Heartbeat CPU 0 instructions: 880000000 cycles: 773118012 heartbeat IPC: 1.45694 cumulative IPC: 1.04993 (Simulation time: 0 hr 31 min 18 sec) 
Heartbeat CPU 0 instructions: 890000002 cycles: 779973058 heartbeat IPC: 1.45878 cumulative IPC: 1.05367 (Simulation time: 0 hr 31 min 45 sec) 
Heartbeat CPU 0 instructions: 900000002 cycles: 786778739 heartbeat IPC: 1.46936 cumulative IPC: 1.05741 (Simulation time: 0 hr 32 min 11 sec) 
Heartbeat CPU 0 instructions: 910000000 cycles: 793658456 heartbeat IPC: 1.45355 cumulative IPC: 1.06098 (Simulation time: 0 hr 32 min 38 sec) 
Heartbeat CPU 0 instructions: 920000001 cycles: 800532687 heartbeat IPC: 1.45471 cumulative IPC: 1.06449 (Simulation time: 0 hr 33 min 4 sec) 
Heartbeat CPU 0 instructions: 930000003 cycles: 807511075 heartbeat IPC: 1.433 cumulative IPC: 1.0678 (Simulation time: 0 hr 33 min 31 sec) 
Heartbeat CPU 0 instructions: 940000000 cycles: 831071006 heartbeat IPC: 0.424449 cumulative IPC: 1.04887 (Simulation time: 0 hr 34 min 8 sec) 
Heartbeat CPU 0 instructions: 950000000 cycles: 838040218 heartbeat IPC: 1.43488 cumulative IPC: 1.0522 (Simulation time: 0 hr 34 min 35 sec) 
Heartbeat CPU 0 instructions: 960000001 cycles: 844907625 heartbeat IPC: 1.45615 cumulative IPC: 1.05561 (Simulation time: 0 hr 35 min 1 sec) 
Heartbeat CPU 0 instructions: 970000000 cycles: 851740887 heartbeat IPC: 1.46343 cumulative IPC: 1.059 (Simulation time: 0 hr 35 min 28 sec) 
Heartbeat CPU 0 instructions: 980000001 cycles: 858536869 heartbeat IPC: 1.47146 cumulative IPC: 1.06238 (Simulation time: 0 hr 35 min 54 sec) 
Heartbeat CPU 0 instructions: 990000000 cycles: 865453188 heartbeat IPC: 1.44586 cumulative IPC: 1.06556 (Simulation time: 0 hr 36 min 21 sec) 
Heartbeat CPU 0 instructions: 1000000003 cycles: 872381375 heartbeat IPC: 1.44338 cumulative IPC: 1.06867 (Simulation time: 0 hr 36 min 48 sec) 
Heartbeat CPU 0 instructions: 1010000000 cycles: 895977692 heartbeat IPC: 0.423795 cumulative IPC: 1.05109 (Simulation time: 0 hr 37 min 24 sec) 
Heartbeat CPU 0 instructions: 1020000002 cycles: 903067018 heartbeat IPC: 1.41057 cumulative IPC: 1.05401 (Simulation time: 0 hr 37 min 51 sec) 
Heartbeat CPU 0 instructions: 1030000000 cycles: 909959611 heartbeat IPC: 1.45083 cumulative IPC: 1.05712 (Simulation time: 0 hr 38 min 18 sec) 
Heartbeat CPU 0 instructions: 1040000000 cycles: 916809292 heartbeat IPC: 1.45992 cumulative IPC: 1.06023 (Simulation time: 0 hr 38 min 45 sec) 
Heartbeat CPU 0 instructions: 1050000001 cycles: 923594667 heartbeat IPC: 1.47376 cumulative IPC: 1.06337 (Simulation time: 0 hr 39 min 11 sec) 
Heartbeat CPU 0 instructions: 1060000000 cycles: 930502700 heartbeat IPC: 1.44759 cumulative IPC: 1.06632 (Simulation time: 0 hr 39 min 39 sec) 
Heartbeat CPU 0 instructions: 1070000001 cycles: 937373762 heartbeat IPC: 1.45538 cumulative IPC: 1.06927 (Simulation time: 0 hr 40 min 6 sec) 
Heartbeat CPU 0 instructions: 1080000002 cycles: 954360318 heartbeat IPC: 0.588701 cumulative IPC: 1.06043 (Simulation time: 0 hr 40 min 41 sec) 
Heartbeat CPU 0 instructions: 1090000001 cycles: 967197878 heartbeat IPC: 0.778964 cumulative IPC: 1.05658 (Simulation time: 0 hr 41 min 11 sec) 
Heartbeat CPU 0 instructions: 1100000000 cycles: 974132612 heartbeat IPC: 1.44202 cumulative IPC: 1.05941 (Simulation time: 0 hr 41 min 38 sec) 
Finished CPU 0 instructions: 1000000000 cycles: 943922223 cumulative IPC: 1.05941 (Simulation time: 0 hr 41 min 38 sec) 

ChampSim completed all CPUs

Region of Interest Statistics

CPU 0 cumulative IPC: 1.05941 instructions: 1000000000 cycles: 943922223
L1D TOTAL     ACCESS:  230616452  HIT:  228376761  MISS:    2239691
L1D LOAD      ACCESS:  142294592  HIT:  140949887  MISS:    1344705
L1D RFO       ACCESS:   88321860  HIT:   87426874  MISS:     894986
L1D PREFETCH  ACCESS:          0  HIT:          0  MISS:          0
L1D WRITEBACK ACCESS:          0  HIT:          0  MISS:          0
L1D PREFETCH  REQUESTED:          0  ISSUED:          0  USEFUL:          0  USELESS:          0
L1D AVERAGE MISS LATENCY: 240.116 cycles
L1I TOTAL     ACCESS:  186085009  HIT:  186084938  MISS:         71
L1I LOAD      ACCESS:  186085009  HIT:  186084938  MISS:         71
L1I RFO       ACCESS:          0  HIT:          0  MISS:          0
L1I PREFETCH  ACCESS:          0  HIT:          0  MISS:          0
L1I WRITEBACK ACCESS:          0  HIT:          0  MISS:          0
L1I PREFETCH  REQUESTED:          0  ISSUED:          0  USEFUL:          0  USELESS:          0
L1I AVERAGE MISS LATENCY: 225.746 cycles
L2C TOTAL     ACCESS:    3134860  HIT:     894554  MISS:    2240306
L2C LOAD      ACCESS:    1344776  HIT:        405  MISS:    1344371
L2C RFO       ACCESS:     894983  HIT:        895  MISS:     894088
L2C PREFETCH  ACCESS:          0  HIT:          0  MISS:          0
L2C WRITEBACK ACCESS:     895101  HIT:     893254  MISS:       1847
L2C PREFETCH  REQUESTED:          0  ISSUED:          0  USEFUL:          0  USELESS:          0
L2C AVERAGE MISS LATENCY: 227.605 cycles
LLC TOTAL     ACCESS:    3133116  HIT:     893024  MISS:    2240092
LLC LOAD      ACCESS:    1344371  HIT:         52  MISS:    1344319
LLC RFO       ACCESS:     894088  HIT:        141  MISS:     893947
LLC PREFETCH  ACCESS:          0  HIT:          0  MISS:          0
LLC WRITEBACK ACCESS:     894657  HIT:     892831  MISS:       1826
LLC PREFETCH  REQUESTED:          0  ISSUED:          0  USEFUL:          0  USELESS:          0
LLC AVERAGE MISS LATENCY: 187.333 cycles
Major fault: 0 Minor fault: 16776

DRAM Statistics
 CHANNEL 0
 RQ ROW_BUFFER_HIT:     418833  ROW_BUFFER_MISS:    1819433
 DBUS_CONGESTED:     604572
 WQ ROW_BUFFER_HIT:     451847  ROW_BUFFER_MISS:     436457  FULL:          0

 AVG_CONGESTED_CYCLE: 6

CPU 0 Branch Prediction Accuracy: 91.4265% MPKI: 10.8386 Average ROB Occupancy at Mispredict: 17.0583

Branch types
NOT_BRANCH: 873580538 87.3581%
BRANCH_DIRECT_JUMP: 10632506 1.06325%
BRANCH_INDIRECT: 238987 0.0238987%
BRANCH_CONDITIONAL: 92907924 9.29079%
BRANCH_DIRECT_CALL: 11320021 1.132%
BRANCH_INDIRECT_CALL: 0 0%
BRANCH_RETURN: 11320025 1.132%
BRANCH_OTHER: 0 0%

