
*** ChampSim Multicore Out-of-Order Simulator ***

Warmup Instructions: 100000000
Simulation Instructions: 1000000000
Number of CPUs: 1
LLC sets: 2048
LLC ways: 16
Off-chip DRAM Size: 4096 MB Channels: 1 Width: 64-bit Data Rate: 3200 MT/s

CPU 0 runs /scratch/user/kevin.weston/dpc3-traces/654.champsimtrace.xz
CPU 0 Bimodal branch predictor
Initialize DRRIP state
Assign rand_sets[0]: 454  LLC: 2048
rand_sets[0]: 454
Assign rand_sets[1]: 1662  LLC: 2048
rand_sets[1]: 1662
Assign rand_sets[2]: 1921  LLC: 2048
rand_sets[2]: 1921
Assign rand_sets[3]: 1131  LLC: 2048
rand_sets[3]: 1131
Assign rand_sets[4]: 331  LLC: 2048
rand_sets[4]: 331
Assign rand_sets[5]: 1531  LLC: 2048
rand_sets[5]: 1531
Assign rand_sets[6]: 482  LLC: 2048
rand_sets[6]: 482
Assign rand_sets[7]: 1275  LLC: 2048
rand_sets[7]: 1275
Assign rand_sets[8]: 1876  LLC: 2048
rand_sets[8]: 1876
Assign rand_sets[9]: 2038  LLC: 2048
rand_sets[9]: 2038
Assign rand_sets[10]: 701  LLC: 2048
rand_sets[10]: 701
Assign rand_sets[11]: 479  LLC: 2048
rand_sets[11]: 479
Assign rand_sets[12]: 892  LLC: 2048
rand_sets[12]: 892
Assign rand_sets[13]: 1820  LLC: 2048
rand_sets[13]: 1820
Assign rand_sets[14]: 1505  LLC: 2048
rand_sets[14]: 1505
Assign rand_sets[15]: 1159  LLC: 2048
rand_sets[15]: 1159
Assign rand_sets[16]: 513  LLC: 2048
rand_sets[16]: 513
Assign rand_sets[17]: 703  LLC: 2048
rand_sets[17]: 703
Assign rand_sets[18]: 561  LLC: 2048
rand_sets[18]: 561
Assign rand_sets[19]: 990  LLC: 2048
rand_sets[19]: 990
Assign rand_sets[20]: 342  LLC: 2048
rand_sets[20]: 342
Assign rand_sets[21]: 882  LLC: 2048
rand_sets[21]: 882
Assign rand_sets[22]: 15  LLC: 2048
rand_sets[22]: 15
Assign rand_sets[23]: 71  LLC: 2048
rand_sets[23]: 71
Assign rand_sets[24]: 1127  LLC: 2048
rand_sets[24]: 1127
Assign rand_sets[25]: 1382  LLC: 2048
rand_sets[25]: 1382
Assign rand_sets[26]: 647  LLC: 2048
rand_sets[26]: 647
Assign rand_sets[27]: 857  LLC: 2048
rand_sets[27]: 857
Assign rand_sets[28]: 1450  LLC: 2048
rand_sets[28]: 1450
Assign rand_sets[29]: 1160  LLC: 2048
rand_sets[29]: 1160
Assign rand_sets[30]: 1852  LLC: 2048
rand_sets[30]: 1852
Assign rand_sets[31]: 1881  LLC: 2048
rand_sets[31]: 1881
Assign rand_sets[32]: 1770  LLC: 2048
rand_sets[32]: 1770
Assign rand_sets[33]: 1622  LLC: 2048
rand_sets[33]: 1622
Assign rand_sets[34]: 275  LLC: 2048
rand_sets[34]: 275
Assign rand_sets[35]: 635  LLC: 2048
rand_sets[35]: 635
Assign rand_sets[36]: 466  LLC: 2048
rand_sets[36]: 466
Assign rand_sets[37]: 1413  LLC: 2048
rand_sets[37]: 1413
Assign rand_sets[38]: 417  LLC: 2048
rand_sets[38]: 417
Assign rand_sets[39]: 472  LLC: 2048
rand_sets[39]: 472
Assign rand_sets[40]: 1340  LLC: 2048
rand_sets[40]: 1340
Assign rand_sets[41]: 852  LLC: 2048
rand_sets[41]: 852
Assign rand_sets[42]: 1365  LLC: 2048
rand_sets[42]: 1365
Assign rand_sets[43]: 47  LLC: 2048
rand_sets[43]: 47
Assign rand_sets[44]: 823  LLC: 2048
rand_sets[44]: 823
Assign rand_sets[45]: 686  LLC: 2048
rand_sets[45]: 686
Assign rand_sets[46]: 1637  LLC: 2048
rand_sets[46]: 1637
Assign rand_sets[47]: 1115  LLC: 2048
rand_sets[47]: 1115
Assign rand_sets[48]: 986  LLC: 2048
rand_sets[48]: 986
Assign rand_sets[49]: 258  LLC: 2048
rand_sets[49]: 258
Assign rand_sets[50]: 633  LLC: 2048
rand_sets[50]: 633
Assign rand_sets[51]: 920  LLC: 2048
rand_sets[51]: 920
Assign rand_sets[52]: 204  LLC: 2048
rand_sets[52]: 204
Assign rand_sets[53]: 227  LLC: 2048
rand_sets[53]: 227
Assign rand_sets[54]: 1818  LLC: 2048
rand_sets[54]: 1818
Assign rand_sets[55]: 886  LLC: 2048
rand_sets[55]: 886
Assign rand_sets[56]: 1422  LLC: 2048
rand_sets[56]: 1422
Assign rand_sets[57]: 607  LLC: 2048
rand_sets[57]: 607
Assign rand_sets[58]: 217  LLC: 2048
rand_sets[58]: 217
Assign rand_sets[59]: 1945  LLC: 2048
rand_sets[59]: 1945
Assign rand_sets[60]: 143  LLC: 2048
rand_sets[60]: 143
Assign rand_sets[61]: 1311  LLC: 2048
rand_sets[61]: 1311
Assign rand_sets[62]: 319  LLC: 2048
rand_sets[62]: 319
Assign rand_sets[63]: 1846  LLC: 2048
rand_sets[63]: 1846
Heartbeat CPU 0 instructions: 10000000 cycles: 2987068 heartbeat IPC: 3.34776 cumulative IPC: 3.34776 (Simulation time: 0 hr 0 min 20 sec) 
Heartbeat CPU 0 instructions: 20000003 cycles: 6017318 heartbeat IPC: 3.30006 cumulative IPC: 3.32374 (Simulation time: 0 hr 0 min 39 sec) 
Heartbeat CPU 0 instructions: 30000000 cycles: 8981688 heartbeat IPC: 3.3734 cumulative IPC: 3.34013 (Simulation time: 0 hr 0 min 59 sec) 
Heartbeat CPU 0 instructions: 40000000 cycles: 12020272 heartbeat IPC: 3.29101 cumulative IPC: 3.32771 (Simulation time: 0 hr 1 min 19 sec) 
Heartbeat CPU 0 instructions: 50000003 cycles: 15223917 heartbeat IPC: 3.12145 cumulative IPC: 3.28431 (Simulation time: 0 hr 1 min 39 sec) 
Heartbeat CPU 0 instructions: 60000000 cycles: 18233008 heartbeat IPC: 3.32326 cumulative IPC: 3.29074 (Simulation time: 0 hr 1 min 59 sec) 
Heartbeat CPU 0 instructions: 70000001 cycles: 21221321 heartbeat IPC: 3.34637 cumulative IPC: 3.29857 (Simulation time: 0 hr 2 min 18 sec) 
Heartbeat CPU 0 instructions: 80000001 cycles: 24228331 heartbeat IPC: 3.32556 cumulative IPC: 3.30192 (Simulation time: 0 hr 2 min 39 sec) 
Heartbeat CPU 0 instructions: 90000000 cycles: 27260244 heartbeat IPC: 3.29825 cumulative IPC: 3.30151 (Simulation time: 0 hr 2 min 59 sec) 
Heartbeat CPU 0 instructions: 100000001 cycles: 30210391 heartbeat IPC: 3.38966 cumulative IPC: 3.31012 (Simulation time: 0 hr 3 min 18 sec) 

Warmup complete CPU 0 instructions: 100000001 cycles: 30210391 (Simulation time: 0 hr 3 min 18 sec) 

Heartbeat CPU 0 instructions: 110000000 cycles: 39499342 heartbeat IPC: 1.07655 cumulative IPC: 1.07655 (Simulation time: 0 hr 3 min 32 sec) 
Heartbeat CPU 0 instructions: 120000003 cycles: 49105766 heartbeat IPC: 1.04097 cumulative IPC: 1.05846 (Simulation time: 0 hr 3 min 44 sec) 
Heartbeat CPU 0 instructions: 130000003 cycles: 58819834 heartbeat IPC: 1.02943 cumulative IPC: 1.0486 (Simulation time: 0 hr 3 min 57 sec) 
Heartbeat CPU 0 instructions: 140000000 cycles: 68201891 heartbeat IPC: 1.06586 cumulative IPC: 1.05287 (Simulation time: 0 hr 4 min 10 sec) 
Heartbeat CPU 0 instructions: 150000002 cycles: 77575282 heartbeat IPC: 1.06685 cumulative IPC: 1.05563 (Simulation time: 0 hr 4 min 23 sec) 
Heartbeat CPU 0 instructions: 160000003 cycles: 87190203 heartbeat IPC: 1.04005 cumulative IPC: 1.053 (Simulation time: 0 hr 4 min 36 sec) 
Heartbeat CPU 0 instructions: 170000000 cycles: 96666957 heartbeat IPC: 1.05521 cumulative IPC: 1.05332 (Simulation time: 0 hr 4 min 49 sec) 
Heartbeat CPU 0 instructions: 180000003 cycles: 105921994 heartbeat IPC: 1.08049 cumulative IPC: 1.05664 (Simulation time: 0 hr 5 min 2 sec) 
Heartbeat CPU 0 instructions: 190000001 cycles: 115307076 heartbeat IPC: 1.06552 cumulative IPC: 1.05762 (Simulation time: 0 hr 5 min 15 sec) 
Heartbeat CPU 0 instructions: 200000001 cycles: 124820662 heartbeat IPC: 1.05113 cumulative IPC: 1.05697 (Simulation time: 0 hr 5 min 28 sec) 
Heartbeat CPU 0 instructions: 210000002 cycles: 134505598 heartbeat IPC: 1.03253 cumulative IPC: 1.0547 (Simulation time: 0 hr 5 min 40 sec) 
Heartbeat CPU 0 instructions: 220000000 cycles: 143925573 heartbeat IPC: 1.06157 cumulative IPC: 1.05527 (Simulation time: 0 hr 5 min 53 sec) 
Heartbeat CPU 0 instructions: 230000001 cycles: 153644655 heartbeat IPC: 1.0289 cumulative IPC: 1.05319 (Simulation time: 0 hr 6 min 6 sec) 
Heartbeat CPU 0 instructions: 240000003 cycles: 163089978 heartbeat IPC: 1.05873 cumulative IPC: 1.05359 (Simulation time: 0 hr 6 min 19 sec) 
Heartbeat CPU 0 instructions: 250000001 cycles: 172563253 heartbeat IPC: 1.0556 cumulative IPC: 1.05372 (Simulation time: 0 hr 6 min 32 sec) 
Heartbeat CPU 0 instructions: 260000002 cycles: 182191445 heartbeat IPC: 1.03862 cumulative IPC: 1.05276 (Simulation time: 0 hr 6 min 44 sec) 
Heartbeat CPU 0 instructions: 270000001 cycles: 191669929 heartbeat IPC: 1.05502 cumulative IPC: 1.0529 (Simulation time: 0 hr 6 min 57 sec) 
Heartbeat CPU 0 instructions: 280000003 cycles: 201242754 heartbeat IPC: 1.04462 cumulative IPC: 1.05243 (Simulation time: 0 hr 7 min 10 sec) 
Heartbeat CPU 0 instructions: 290000000 cycles: 210967665 heartbeat IPC: 1.02829 cumulative IPC: 1.05113 (Simulation time: 0 hr 7 min 22 sec) 
Heartbeat CPU 0 instructions: 300000002 cycles: 220608958 heartbeat IPC: 1.03721 cumulative IPC: 1.05043 (Simulation time: 0 hr 7 min 35 sec) 
Heartbeat CPU 0 instructions: 310000001 cycles: 230363060 heartbeat IPC: 1.02521 cumulative IPC: 1.0492 (Simulation time: 0 hr 7 min 47 sec) 
Heartbeat CPU 0 instructions: 320000002 cycles: 240112424 heartbeat IPC: 1.02571 cumulative IPC: 1.04811 (Simulation time: 0 hr 8 min 0 sec) 
Heartbeat CPU 0 instructions: 330000000 cycles: 249864435 heartbeat IPC: 1.02543 cumulative IPC: 1.0471 (Simulation time: 0 hr 8 min 12 sec) 
Heartbeat CPU 0 instructions: 340000001 cycles: 259500792 heartbeat IPC: 1.03774 cumulative IPC: 1.04671 (Simulation time: 0 hr 8 min 25 sec) 
Heartbeat CPU 0 instructions: 350000001 cycles: 269216694 heartbeat IPC: 1.02924 cumulative IPC: 1.046 (Simulation time: 0 hr 8 min 37 sec) 
Heartbeat CPU 0 instructions: 360000000 cycles: 278916606 heartbeat IPC: 1.03094 cumulative IPC: 1.04541 (Simulation time: 0 hr 8 min 50 sec) 
Heartbeat CPU 0 instructions: 370000000 cycles: 288576184 heartbeat IPC: 1.03524 cumulative IPC: 1.04503 (Simulation time: 0 hr 9 min 2 sec) 
Heartbeat CPU 0 instructions: 380000002 cycles: 297532319 heartbeat IPC: 1.11655 cumulative IPC: 1.04743 (Simulation time: 0 hr 9 min 16 sec) 
Heartbeat CPU 0 instructions: 390000002 cycles: 306976668 heartbeat IPC: 1.05883 cumulative IPC: 1.04782 (Simulation time: 0 hr 9 min 29 sec) 
Heartbeat CPU 0 instructions: 400000001 cycles: 316643983 heartbeat IPC: 1.03441 cumulative IPC: 1.04736 (Simulation time: 0 hr 9 min 42 sec) 
Heartbeat CPU 0 instructions: 410000002 cycles: 326335372 heartbeat IPC: 1.03184 cumulative IPC: 1.04686 (Simulation time: 0 hr 9 min 54 sec) 
Heartbeat CPU 0 instructions: 420000000 cycles: 336059535 heartbeat IPC: 1.02837 cumulative IPC: 1.04627 (Simulation time: 0 hr 10 min 7 sec) 
Heartbeat CPU 0 instructions: 430000000 cycles: 345210914 heartbeat IPC: 1.09273 cumulative IPC: 1.04762 (Simulation time: 0 hr 10 min 21 sec) 
Heartbeat CPU 0 instructions: 440000000 cycles: 354552245 heartbeat IPC: 1.07051 cumulative IPC: 1.04828 (Simulation time: 0 hr 10 min 34 sec) 
Heartbeat CPU 0 instructions: 450000003 cycles: 362990649 heartbeat IPC: 1.18506 cumulative IPC: 1.05175 (Simulation time: 0 hr 10 min 49 sec) 
Heartbeat CPU 0 instructions: 460000000 cycles: 372687859 heartbeat IPC: 1.03122 cumulative IPC: 1.05116 (Simulation time: 0 hr 11 min 2 sec) 
Heartbeat CPU 0 instructions: 470000002 cycles: 382362303 heartbeat IPC: 1.03365 cumulative IPC: 1.05068 (Simulation time: 0 hr 11 min 14 sec) 
Heartbeat CPU 0 instructions: 480000002 cycles: 391979028 heartbeat IPC: 1.03986 cumulative IPC: 1.0504 (Simulation time: 0 hr 11 min 27 sec) 
Heartbeat CPU 0 instructions: 490000002 cycles: 416608730 heartbeat IPC: 0.406014 cumulative IPC: 1.00932 (Simulation time: 0 hr 11 min 56 sec) 
Heartbeat CPU 0 instructions: 500000000 cycles: 423719208 heartbeat IPC: 1.40637 cumulative IPC: 1.0165 (Simulation time: 0 hr 12 min 20 sec) 
Heartbeat CPU 0 instructions: 510000002 cycles: 430630656 heartbeat IPC: 1.44688 cumulative IPC: 1.02392 (Simulation time: 0 hr 12 min 44 sec) 
Heartbeat CPU 0 instructions: 520000000 cycles: 437468899 heartbeat IPC: 1.46236 cumulative IPC: 1.03129 (Simulation time: 0 hr 13 min 8 sec) 
Heartbeat CPU 0 instructions: 530000000 cycles: 444344143 heartbeat IPC: 1.45449 cumulative IPC: 1.03831 (Simulation time: 0 hr 13 min 33 sec) 
Heartbeat CPU 0 instructions: 540000003 cycles: 451233559 heartbeat IPC: 1.4515 cumulative IPC: 1.04507 (Simulation time: 0 hr 13 min 57 sec) 
Heartbeat CPU 0 instructions: 550000000 cycles: 458065838 heartbeat IPC: 1.46364 cumulative IPC: 1.05176 (Simulation time: 0 hr 14 min 21 sec) 
Heartbeat CPU 0 instructions: 560000000 cycles: 469813378 heartbeat IPC: 0.851242 cumulative IPC: 1.0464 (Simulation time: 0 hr 14 min 48 sec) 
Heartbeat CPU 0 instructions: 570000001 cycles: 492565474 heartbeat IPC: 0.43952 cumulative IPC: 1.01653 (Simulation time: 0 hr 15 min 22 sec) 
Heartbeat CPU 0 instructions: 580000002 cycles: 499503255 heartbeat IPC: 1.44138 cumulative IPC: 1.02282 (Simulation time: 0 hr 15 min 46 sec) 
Heartbeat CPU 0 instructions: 590000000 cycles: 506424919 heartbeat IPC: 1.44474 cumulative IPC: 1.02895 (Simulation time: 0 hr 16 min 10 sec) 
Heartbeat CPU 0 instructions: 600000000 cycles: 513287995 heartbeat IPC: 1.45707 cumulative IPC: 1.03503 (Simulation time: 0 hr 16 min 35 sec) 
Heartbeat CPU 0 instructions: 610000001 cycles: 520173076 heartbeat IPC: 1.45242 cumulative IPC: 1.0409 (Simulation time: 0 hr 16 min 59 sec) 
Heartbeat CPU 0 instructions: 620000001 cycles: 527049280 heartbeat IPC: 1.45429 cumulative IPC: 1.04662 (Simulation time: 0 hr 17 min 23 sec) 
Heartbeat CPU 0 instructions: 630000003 cycles: 533862485 heartbeat IPC: 1.46774 cumulative IPC: 1.05231 (Simulation time: 0 hr 17 min 47 sec) 
Heartbeat CPU 0 instructions: 640000000 cycles: 557001764 heartbeat IPC: 0.432165 cumulative IPC: 1.02507 (Simulation time: 0 hr 18 min 22 sec) 
Heartbeat CPU 0 instructions: 650000000 cycles: 563923187 heartbeat IPC: 1.44479 cumulative IPC: 1.03052 (Simulation time: 0 hr 18 min 46 sec) 
Heartbeat CPU 0 instructions: 660000000 cycles: 570571962 heartbeat IPC: 1.50404 cumulative IPC: 1.03634 (Simulation time: 0 hr 19 min 10 sec) 
Heartbeat CPU 0 instructions: 670000002 cycles: 577231433 heartbeat IPC: 1.50162 cumulative IPC: 1.04201 (Simulation time: 0 hr 19 min 34 sec) 
Heartbeat CPU 0 instructions: 680000002 cycles: 584090539 heartbeat IPC: 1.45792 cumulative IPC: 1.04716 (Simulation time: 0 hr 19 min 59 sec) 
Heartbeat CPU 0 instructions: 690000001 cycles: 590744744 heartbeat IPC: 1.50281 cumulative IPC: 1.05257 (Simulation time: 0 hr 20 min 23 sec) 
Heartbeat CPU 0 instructions: 700000003 cycles: 597542792 heartbeat IPC: 1.47101 cumulative IPC: 1.05758 (Simulation time: 0 hr 20 min 47 sec) 
Heartbeat CPU 0 instructions: 710000001 cycles: 618023594 heartbeat IPC: 0.488262 cumulative IPC: 1.03774 (Simulation time: 0 hr 21 min 20 sec) 
Heartbeat CPU 0 instructions: 720000002 cycles: 627615597 heartbeat IPC: 1.04254 cumulative IPC: 1.03782 (Simulation time: 0 hr 21 min 45 sec) 
Heartbeat CPU 0 instructions: 730000002 cycles: 634355540 heartbeat IPC: 1.48369 cumulative IPC: 1.0428 (Simulation time: 0 hr 22 min 9 sec) 
Heartbeat CPU 0 instructions: 740000002 cycles: 640930133 heartbeat IPC: 1.52101 cumulative IPC: 1.04794 (Simulation time: 0 hr 22 min 33 sec) 
Heartbeat CPU 0 instructions: 750000000 cycles: 647707976 heartbeat IPC: 1.4754 cumulative IPC: 1.05264 (Simulation time: 0 hr 22 min 58 sec) 
Heartbeat CPU 0 instructions: 760000000 cycles: 654435873 heartbeat IPC: 1.48635 cumulative IPC: 1.05731 (Simulation time: 0 hr 23 min 22 sec) 
Heartbeat CPU 0 instructions: 770000000 cycles: 661170894 heartbeat IPC: 1.48478 cumulative IPC: 1.06187 (Simulation time: 0 hr 23 min 46 sec) 
Heartbeat CPU 0 instructions: 780000002 cycles: 667989798 heartbeat IPC: 1.46651 cumulative IPC: 1.0662 (Simulation time: 0 hr 24 min 10 sec) 
Heartbeat CPU 0 instructions: 790000000 cycles: 690326270 heartbeat IPC: 0.447698 cumulative IPC: 1.04527 (Simulation time: 0 hr 24 min 44 sec) 
Heartbeat CPU 0 instructions: 800000000 cycles: 697201516 heartbeat IPC: 1.45449 cumulative IPC: 1.04949 (Simulation time: 0 hr 25 min 8 sec) 
Heartbeat CPU 0 instructions: 810000000 cycles: 703805318 heartbeat IPC: 1.51428 cumulative IPC: 1.05405 (Simulation time: 0 hr 25 min 32 sec) 
Heartbeat CPU 0 instructions: 820000000 cycles: 710458468 heartbeat IPC: 1.50305 cumulative IPC: 1.05844 (Simulation time: 0 hr 25 min 57 sec) 
Heartbeat CPU 0 instructions: 830000002 cycles: 717287299 heartbeat IPC: 1.46438 cumulative IPC: 1.06247 (Simulation time: 0 hr 26 min 21 sec) 
Heartbeat CPU 0 instructions: 840000002 cycles: 723943706 heartbeat IPC: 1.50231 cumulative IPC: 1.06669 (Simulation time: 0 hr 26 min 46 sec) 
Heartbeat CPU 0 instructions: 850000001 cycles: 730768913 heartbeat IPC: 1.46516 cumulative IPC: 1.07057 (Simulation time: 0 hr 27 min 11 sec) 
Heartbeat CPU 0 instructions: 860000000 cycles: 753297196 heartbeat IPC: 0.443886 cumulative IPC: 1.05105 (Simulation time: 0 hr 27 min 45 sec) 
Heartbeat CPU 0 instructions: 870000002 cycles: 760243566 heartbeat IPC: 1.4396 cumulative IPC: 1.05475 (Simulation time: 0 hr 28 min 9 sec) 
Heartbeat CPU 0 instructions: 880000000 cycles: 766916358 heartbeat IPC: 1.49862 cumulative IPC: 1.05877 (Simulation time: 0 hr 28 min 34 sec) 
Heartbeat CPU 0 instructions: 890000002 cycles: 773494749 heartbeat IPC: 1.52013 cumulative IPC: 1.06285 (Simulation time: 0 hr 28 min 58 sec) 
Heartbeat CPU 0 instructions: 900000002 cycles: 780322351 heartbeat IPC: 1.46464 cumulative IPC: 1.06651 (Simulation time: 0 hr 29 min 22 sec) 
Heartbeat CPU 0 instructions: 910000000 cycles: 786993188 heartbeat IPC: 1.49906 cumulative IPC: 1.07032 (Simulation time: 0 hr 29 min 47 sec) 
Heartbeat CPU 0 instructions: 920000001 cycles: 793755092 heartbeat IPC: 1.47887 cumulative IPC: 1.07394 (Simulation time: 0 hr 30 min 11 sec) 
Heartbeat CPU 0 instructions: 930000003 cycles: 800560164 heartbeat IPC: 1.46949 cumulative IPC: 1.07743 (Simulation time: 0 hr 30 min 36 sec) 
Heartbeat CPU 0 instructions: 940000000 cycles: 823365402 heartbeat IPC: 0.438496 cumulative IPC: 1.05906 (Simulation time: 0 hr 31 min 10 sec) 
Heartbeat CPU 0 instructions: 950000000 cycles: 830208351 heartbeat IPC: 1.46136 cumulative IPC: 1.0625 (Simulation time: 0 hr 31 min 35 sec) 
Heartbeat CPU 0 instructions: 960000001 cycles: 836786381 heartbeat IPC: 1.52021 cumulative IPC: 1.06624 (Simulation time: 0 hr 31 min 59 sec) 
Heartbeat CPU 0 instructions: 970000000 cycles: 843489811 heartbeat IPC: 1.49177 cumulative IPC: 1.06974 (Simulation time: 0 hr 32 min 23 sec) 
Heartbeat CPU 0 instructions: 980000001 cycles: 850292994 heartbeat IPC: 1.4699 cumulative IPC: 1.07306 (Simulation time: 0 hr 32 min 48 sec) 
Heartbeat CPU 0 instructions: 990000000 cycles: 856968162 heartbeat IPC: 1.49809 cumulative IPC: 1.07649 (Simulation time: 0 hr 33 min 12 sec) 
Heartbeat CPU 0 instructions: 1000000003 cycles: 863791546 heartbeat IPC: 1.46555 cumulative IPC: 1.07968 (Simulation time: 0 hr 33 min 36 sec) 
Heartbeat CPU 0 instructions: 1010000000 cycles: 886586056 heartbeat IPC: 0.438702 cumulative IPC: 1.06262 (Simulation time: 0 hr 34 min 10 sec) 
Heartbeat CPU 0 instructions: 1020000002 cycles: 893528132 heartbeat IPC: 1.44049 cumulative IPC: 1.06566 (Simulation time: 0 hr 34 min 35 sec) 
Heartbeat CPU 0 instructions: 1030000000 cycles: 900156781 heartbeat IPC: 1.5086 cumulative IPC: 1.06903 (Simulation time: 0 hr 34 min 59 sec) 
Heartbeat CPU 0 instructions: 1040000000 cycles: 906770968 heartbeat IPC: 1.5119 cumulative IPC: 1.07237 (Simulation time: 0 hr 35 min 24 sec) 
Heartbeat CPU 0 instructions: 1050000001 cycles: 913596125 heartbeat IPC: 1.46517 cumulative IPC: 1.07541 (Simulation time: 0 hr 35 min 48 sec) 
Heartbeat CPU 0 instructions: 1060000000 cycles: 920240381 heartbeat IPC: 1.50506 cumulative IPC: 1.07862 (Simulation time: 0 hr 36 min 13 sec) 
Heartbeat CPU 0 instructions: 1070000001 cycles: 927021324 heartbeat IPC: 1.47472 cumulative IPC: 1.08161 (Simulation time: 0 hr 36 min 38 sec) 
Heartbeat CPU 0 instructions: 1080000002 cycles: 943314808 heartbeat IPC: 0.613742 cumulative IPC: 1.07326 (Simulation time: 0 hr 37 min 9 sec) 
Heartbeat CPU 0 instructions: 1090000001 cycles: 955869646 heartbeat IPC: 0.796506 cumulative IPC: 1.06951 (Simulation time: 0 hr 37 min 36 sec) 
Heartbeat CPU 0 instructions: 1100000000 cycles: 962656914 heartbeat IPC: 1.47335 cumulative IPC: 1.07245 (Simulation time: 0 hr 38 min 1 sec) 
Finished CPU 0 instructions: 1000000000 cycles: 932446524 cumulative IPC: 1.07245 (Simulation time: 0 hr 38 min 1 sec) 

ChampSim completed all CPUs

Region of Interest Statistics

CPU 0 cumulative IPC: 1.07245 instructions: 1000000000 cycles: 932446524
L1D TOTAL     ACCESS:  230600049  HIT:  228360358  MISS:    2239691
L1D LOAD      ACCESS:  142296102  HIT:  140951397  MISS:    1344705
L1D RFO       ACCESS:   88303947  HIT:   87408961  MISS:     894986
L1D PREFETCH  ACCESS:          0  HIT:          0  MISS:          0
L1D WRITEBACK ACCESS:          0  HIT:          0  MISS:          0
L1D PREFETCH  REQUESTED:          0  ISSUED:          0  USEFUL:          0  USELESS:          0
L1D AVERAGE MISS LATENCY: 232.846 cycles
L1I TOTAL     ACCESS:  186069015  HIT:  186068944  MISS:         71
L1I LOAD      ACCESS:  186069015  HIT:  186068944  MISS:         71
L1I RFO       ACCESS:          0  HIT:          0  MISS:          0
L1I PREFETCH  ACCESS:          0  HIT:          0  MISS:          0
L1I WRITEBACK ACCESS:          0  HIT:          0  MISS:          0
L1I PREFETCH  REQUESTED:          0  ISSUED:          0  USEFUL:          0  USELESS:          0
L1I AVERAGE MISS LATENCY: 229.69 cycles
L2C TOTAL     ACCESS:    3134862  HIT:     894585  MISS:    2240277
L2C LOAD      ACCESS:    1344776  HIT:        406  MISS:    1344370
L2C RFO       ACCESS:     894985  HIT:        925  MISS:     894060
L2C PREFETCH  ACCESS:          0  HIT:          0  MISS:          0
L2C WRITEBACK ACCESS:     895101  HIT:     893254  MISS:       1847
L2C PREFETCH  REQUESTED:          0  ISSUED:          0  USEFUL:          0  USELESS:          0
L2C AVERAGE MISS LATENCY: 220.339 cycles
LLC TOTAL     ACCESS:    3132388  HIT:     380318  MISS:    2752070
LLC LOAD      ACCESS:    1344370  HIT:      72298  MISS:    1272072
LLC RFO       ACCESS:     894060  HIT:      17576  MISS:     876484
LLC PREFETCH  ACCESS:          0  HIT:          0  MISS:          0
LLC WRITEBACK ACCESS:     893958  HIT:     290444  MISS:     603514
LLC PREFETCH  REQUESTED:          0  ISSUED:          0  USEFUL:          0  USELESS:          0
LLC AVERAGE MISS LATENCY: 146.555 cycles
Major fault: 0 Minor fault: 16776

DRAM Statistics
 CHANNEL 0
 RQ ROW_BUFFER_HIT:     392161  ROW_BUFFER_MISS:    1756294
 DBUS_CONGESTED:     580188
 WQ ROW_BUFFER_HIT:     429450  ROW_BUFFER_MISS:     422460  FULL:          0

 AVG_CONGESTED_CYCLE: 6

CPU 0 Branch Prediction Accuracy: 91.4265% MPKI: 10.8386 Average ROB Occupancy at Mispredict: 17.0583

Branch types
NOT_BRANCH: 873580538 87.3581%
BRANCH_DIRECT_JUMP: 10632506 1.06325%
BRANCH_INDIRECT: 238987 0.0238987%
BRANCH_CONDITIONAL: 92907924 9.29079%
BRANCH_DIRECT_CALL: 11320021 1.132%
BRANCH_INDIRECT_CALL: 0 0%
BRANCH_RETURN: 11320025 1.132%
BRANCH_OTHER: 0 0%

