
*** ChampSim Multicore Out-of-Order Simulator ***

Warmup Instructions: 100000000
Simulation Instructions: 1000000000
Number of CPUs: 1
LLC sets: 2048
LLC ways: 16
Off-chip DRAM Size: 4096 MB Channels: 1 Width: 64-bit Data Rate: 3200 MT/s

CPU 0 runs /scratch/user/kevin.weston/dpc3-traces/654.champsimtrace.xz
CPU 0 Bimodal branch predictor
Per-line RRPV Initialized
PRRIP State Initialized
Assign SAMPLER_SET[0]: 454  LLC: 2048
SAMPLER_SET[0]: 454
Assign SAMPLER_SET[1]: 1662  LLC: 2048
SAMPLER_SET[1]: 1662
Assign SAMPLER_SET[2]: 1921  LLC: 2048
SAMPLER_SET[2]: 1921
Assign SAMPLER_SET[3]: 1131  LLC: 2048
SAMPLER_SET[3]: 1131
Assign SAMPLER_SET[4]: 331  LLC: 2048
SAMPLER_SET[4]: 331
Assign SAMPLER_SET[5]: 1531  LLC: 2048
SAMPLER_SET[5]: 1531
Assign SAMPLER_SET[6]: 482  LLC: 2048
SAMPLER_SET[6]: 482
Assign SAMPLER_SET[7]: 1275  LLC: 2048
SAMPLER_SET[7]: 1275
Assign SAMPLER_SET[8]: 1876  LLC: 2048
SAMPLER_SET[8]: 1876
Assign SAMPLER_SET[9]: 2038  LLC: 2048
SAMPLER_SET[9]: 2038
Assign SAMPLER_SET[10]: 701  LLC: 2048
SAMPLER_SET[10]: 701
Assign SAMPLER_SET[11]: 479  LLC: 2048
SAMPLER_SET[11]: 479
Assign SAMPLER_SET[12]: 892  LLC: 2048
SAMPLER_SET[12]: 892
Assign SAMPLER_SET[13]: 1820  LLC: 2048
SAMPLER_SET[13]: 1820
Assign SAMPLER_SET[14]: 1505  LLC: 2048
SAMPLER_SET[14]: 1505
Assign SAMPLER_SET[15]: 1159  LLC: 2048
SAMPLER_SET[15]: 1159
Assign SAMPLER_SET[16]: 513  LLC: 2048
SAMPLER_SET[16]: 513
Assign SAMPLER_SET[17]: 703  LLC: 2048
SAMPLER_SET[17]: 703
Assign SAMPLER_SET[18]: 561  LLC: 2048
SAMPLER_SET[18]: 561
Assign SAMPLER_SET[19]: 990  LLC: 2048
SAMPLER_SET[19]: 990
Assign SAMPLER_SET[20]: 342  LLC: 2048
SAMPLER_SET[20]: 342
Assign SAMPLER_SET[21]: 882  LLC: 2048
SAMPLER_SET[21]: 882
Assign SAMPLER_SET[22]: 15  LLC: 2048
SAMPLER_SET[22]: 15
Assign SAMPLER_SET[23]: 71  LLC: 2048
SAMPLER_SET[23]: 71
Assign SAMPLER_SET[24]: 1127  LLC: 2048
SAMPLER_SET[24]: 1127
Assign SAMPLER_SET[25]: 1382  LLC: 2048
SAMPLER_SET[25]: 1382
Assign SAMPLER_SET[26]: 647  LLC: 2048
SAMPLER_SET[26]: 647
Assign SAMPLER_SET[27]: 857  LLC: 2048
SAMPLER_SET[27]: 857
Assign SAMPLER_SET[28]: 1450  LLC: 2048
SAMPLER_SET[28]: 1450
Assign SAMPLER_SET[29]: 1160  LLC: 2048
SAMPLER_SET[29]: 1160
Assign SAMPLER_SET[30]: 1852  LLC: 2048
SAMPLER_SET[30]: 1852
Assign SAMPLER_SET[31]: 1881  LLC: 2048
SAMPLER_SET[31]: 1881
Assign SAMPLER_SET[32]: 1770  LLC: 2048
SAMPLER_SET[32]: 1770
Assign SAMPLER_SET[33]: 1622  LLC: 2048
SAMPLER_SET[33]: 1622
Assign SAMPLER_SET[34]: 275  LLC: 2048
SAMPLER_SET[34]: 275
Assign SAMPLER_SET[35]: 635  LLC: 2048
SAMPLER_SET[35]: 635
Assign SAMPLER_SET[36]: 466  LLC: 2048
SAMPLER_SET[36]: 466
Assign SAMPLER_SET[37]: 1413  LLC: 2048
SAMPLER_SET[37]: 1413
Assign SAMPLER_SET[38]: 417  LLC: 2048
SAMPLER_SET[38]: 417
Assign SAMPLER_SET[39]: 472  LLC: 2048
SAMPLER_SET[39]: 472
Assign SAMPLER_SET[40]: 1340  LLC: 2048
SAMPLER_SET[40]: 1340
Assign SAMPLER_SET[41]: 852  LLC: 2048
SAMPLER_SET[41]: 852
Assign SAMPLER_SET[42]: 1365  LLC: 2048
SAMPLER_SET[42]: 1365
Assign SAMPLER_SET[43]: 47  LLC: 2048
SAMPLER_SET[43]: 47
Assign SAMPLER_SET[44]: 823  LLC: 2048
SAMPLER_SET[44]: 823
Assign SAMPLER_SET[45]: 686  LLC: 2048
SAMPLER_SET[45]: 686
Assign SAMPLER_SET[46]: 1637  LLC: 2048
SAMPLER_SET[46]: 1637
Assign SAMPLER_SET[47]: 1115  LLC: 2048
SAMPLER_SET[47]: 1115
Assign SAMPLER_SET[48]: 986  LLC: 2048
SAMPLER_SET[48]: 986
Assign SAMPLER_SET[49]: 258  LLC: 2048
SAMPLER_SET[49]: 258
Assign SAMPLER_SET[50]: 633  LLC: 2048
SAMPLER_SET[50]: 633
Assign SAMPLER_SET[51]: 920  LLC: 2048
SAMPLER_SET[51]: 920
Assign SAMPLER_SET[52]: 204  LLC: 2048
SAMPLER_SET[52]: 204
Assign SAMPLER_SET[53]: 227  LLC: 2048
SAMPLER_SET[53]: 227
Assign SAMPLER_SET[54]: 1818  LLC: 2048
SAMPLER_SET[54]: 1818
Assign SAMPLER_SET[55]: 886  LLC: 2048
SAMPLER_SET[55]: 886
Assign SAMPLER_SET[56]: 1422  LLC: 2048
SAMPLER_SET[56]: 1422
Assign SAMPLER_SET[57]: 607  LLC: 2048
SAMPLER_SET[57]: 607
Assign SAMPLER_SET[58]: 217  LLC: 2048
SAMPLER_SET[58]: 217
Assign SAMPLER_SET[59]: 1945  LLC: 2048
SAMPLER_SET[59]: 1945
Assign SAMPLER_SET[60]: 143  LLC: 2048
SAMPLER_SET[60]: 143
Assign SAMPLER_SET[61]: 1311  LLC: 2048
SAMPLER_SET[61]: 1311
Assign SAMPLER_SET[62]: 319  LLC: 2048
SAMPLER_SET[62]: 319
Assign SAMPLER_SET[63]: 1846  LLC: 2048
SAMPLER_SET[63]: 1846
Heartbeat CPU 0 instructions: 10000000 cycles: 2987068 heartbeat IPC: 3.34776 cumulative IPC: 3.34776 (Simulation time: 0 hr 0 min 20 sec) 
Heartbeat CPU 0 instructions: 20000003 cycles: 6017318 heartbeat IPC: 3.30006 cumulative IPC: 3.32374 (Simulation time: 0 hr 0 min 40 sec) 
Heartbeat CPU 0 instructions: 30000000 cycles: 8981688 heartbeat IPC: 3.3734 cumulative IPC: 3.34013 (Simulation time: 0 hr 1 min 0 sec) 
Heartbeat CPU 0 instructions: 40000000 cycles: 12020272 heartbeat IPC: 3.29101 cumulative IPC: 3.32771 (Simulation time: 0 hr 1 min 20 sec) 
Heartbeat CPU 0 instructions: 50000003 cycles: 15223917 heartbeat IPC: 3.12145 cumulative IPC: 3.28431 (Simulation time: 0 hr 1 min 40 sec) 
Heartbeat CPU 0 instructions: 60000000 cycles: 18233006 heartbeat IPC: 3.32326 cumulative IPC: 3.29074 (Simulation time: 0 hr 2 min 0 sec) 
Heartbeat CPU 0 instructions: 70000001 cycles: 21221319 heartbeat IPC: 3.34637 cumulative IPC: 3.29857 (Simulation time: 0 hr 2 min 20 sec) 
Heartbeat CPU 0 instructions: 80000001 cycles: 24228329 heartbeat IPC: 3.32556 cumulative IPC: 3.30192 (Simulation time: 0 hr 2 min 40 sec) 
Heartbeat CPU 0 instructions: 90000000 cycles: 27260242 heartbeat IPC: 3.29825 cumulative IPC: 3.30151 (Simulation time: 0 hr 3 min 0 sec) 
Heartbeat CPU 0 instructions: 100000001 cycles: 30210389 heartbeat IPC: 3.38966 cumulative IPC: 3.31012 (Simulation time: 0 hr 3 min 20 sec) 

Warmup complete CPU 0 instructions: 100000001 cycles: 30210389 (Simulation time: 0 hr 3 min 20 sec) 

Heartbeat CPU 0 instructions: 110000000 cycles: 39498141 heartbeat IPC: 1.07669 cumulative IPC: 1.07669 (Simulation time: 0 hr 3 min 34 sec) 
Heartbeat CPU 0 instructions: 120000003 cycles: 49104565 heartbeat IPC: 1.04097 cumulative IPC: 1.05853 (Simulation time: 0 hr 3 min 47 sec) 
Heartbeat CPU 0 instructions: 130000003 cycles: 58819433 heartbeat IPC: 1.02935 cumulative IPC: 1.04862 (Simulation time: 0 hr 3 min 59 sec) 
Heartbeat CPU 0 instructions: 140000000 cycles: 68201278 heartbeat IPC: 1.06589 cumulative IPC: 1.05288 (Simulation time: 0 hr 4 min 13 sec) 
Heartbeat CPU 0 instructions: 150000002 cycles: 77578669 heartbeat IPC: 1.06639 cumulative IPC: 1.05556 (Simulation time: 0 hr 4 min 26 sec) 
Heartbeat CPU 0 instructions: 160000003 cycles: 87192490 heartbeat IPC: 1.04017 cumulative IPC: 1.05296 (Simulation time: 0 hr 4 min 39 sec) 
Heartbeat CPU 0 instructions: 170000000 cycles: 96675345 heartbeat IPC: 1.05453 cumulative IPC: 1.05319 (Simulation time: 0 hr 4 min 52 sec) 
Heartbeat CPU 0 instructions: 180000003 cycles: 105924181 heartbeat IPC: 1.08122 cumulative IPC: 1.05661 (Simulation time: 0 hr 5 min 5 sec) 
Heartbeat CPU 0 instructions: 190000001 cycles: 115293178 heartbeat IPC: 1.06735 cumulative IPC: 1.05779 (Simulation time: 0 hr 5 min 18 sec) 
Heartbeat CPU 0 instructions: 200000001 cycles: 124791867 heartbeat IPC: 1.05278 cumulative IPC: 1.05729 (Simulation time: 0 hr 5 min 31 sec) 
Heartbeat CPU 0 instructions: 210000002 cycles: 134470002 heartbeat IPC: 1.03326 cumulative IPC: 1.05506 (Simulation time: 0 hr 5 min 44 sec) 
Heartbeat CPU 0 instructions: 220000000 cycles: 143869746 heartbeat IPC: 1.06386 cumulative IPC: 1.05579 (Simulation time: 0 hr 5 min 57 sec) 
Heartbeat CPU 0 instructions: 230000001 cycles: 153582728 heartbeat IPC: 1.02955 cumulative IPC: 1.05372 (Simulation time: 0 hr 6 min 10 sec) 
Heartbeat CPU 0 instructions: 240000003 cycles: 163016256 heartbeat IPC: 1.06005 cumulative IPC: 1.05417 (Simulation time: 0 hr 6 min 23 sec) 
Heartbeat CPU 0 instructions: 250000001 cycles: 172506830 heartbeat IPC: 1.05368 cumulative IPC: 1.05414 (Simulation time: 0 hr 6 min 36 sec) 
Heartbeat CPU 0 instructions: 260000002 cycles: 182150121 heartbeat IPC: 1.03699 cumulative IPC: 1.05305 (Simulation time: 0 hr 6 min 49 sec) 
Heartbeat CPU 0 instructions: 270000001 cycles: 191654414 heartbeat IPC: 1.05216 cumulative IPC: 1.053 (Simulation time: 0 hr 7 min 3 sec) 
Heartbeat CPU 0 instructions: 280000003 cycles: 201236932 heartbeat IPC: 1.04357 cumulative IPC: 1.05247 (Simulation time: 0 hr 7 min 16 sec) 
Heartbeat CPU 0 instructions: 290000000 cycles: 210956043 heartbeat IPC: 1.0289 cumulative IPC: 1.0512 (Simulation time: 0 hr 7 min 28 sec) 
Heartbeat CPU 0 instructions: 300000002 cycles: 220596551 heartbeat IPC: 1.03729 cumulative IPC: 1.0505 (Simulation time: 0 hr 7 min 41 sec) 
Heartbeat CPU 0 instructions: 310000001 cycles: 230347259 heartbeat IPC: 1.02557 cumulative IPC: 1.04928 (Simulation time: 0 hr 7 min 54 sec) 
Heartbeat CPU 0 instructions: 320000002 cycles: 240095615 heartbeat IPC: 1.02581 cumulative IPC: 1.04819 (Simulation time: 0 hr 8 min 7 sec) 
Heartbeat CPU 0 instructions: 330000000 cycles: 249848126 heartbeat IPC: 1.02538 cumulative IPC: 1.04718 (Simulation time: 0 hr 8 min 19 sec) 
Heartbeat CPU 0 instructions: 340000001 cycles: 259481881 heartbeat IPC: 1.03802 cumulative IPC: 1.04679 (Simulation time: 0 hr 8 min 32 sec) 
Heartbeat CPU 0 instructions: 350000001 cycles: 269196284 heartbeat IPC: 1.0294 cumulative IPC: 1.04609 (Simulation time: 0 hr 8 min 45 sec) 
Heartbeat CPU 0 instructions: 360000000 cycles: 278885908 heartbeat IPC: 1.03203 cumulative IPC: 1.04554 (Simulation time: 0 hr 8 min 58 sec) 
Heartbeat CPU 0 instructions: 370000000 cycles: 288536885 heartbeat IPC: 1.03616 cumulative IPC: 1.04519 (Simulation time: 0 hr 9 min 11 sec) 
Heartbeat CPU 0 instructions: 380000002 cycles: 297503212 heartbeat IPC: 1.11528 cumulative IPC: 1.04754 (Simulation time: 0 hr 9 min 25 sec) 
Heartbeat CPU 0 instructions: 390000002 cycles: 306951205 heartbeat IPC: 1.05843 cumulative IPC: 1.04791 (Simulation time: 0 hr 9 min 39 sec) 
Heartbeat CPU 0 instructions: 400000001 cycles: 316611920 heartbeat IPC: 1.03512 cumulative IPC: 1.04748 (Simulation time: 0 hr 9 min 52 sec) 
Heartbeat CPU 0 instructions: 410000002 cycles: 326292409 heartbeat IPC: 1.03301 cumulative IPC: 1.04701 (Simulation time: 0 hr 10 min 5 sec) 
Heartbeat CPU 0 instructions: 420000000 cycles: 336006469 heartbeat IPC: 1.02944 cumulative IPC: 1.04645 (Simulation time: 0 hr 10 min 18 sec) 
Heartbeat CPU 0 instructions: 430000000 cycles: 345136216 heartbeat IPC: 1.09532 cumulative IPC: 1.04787 (Simulation time: 0 hr 10 min 32 sec) 
Heartbeat CPU 0 instructions: 440000000 cycles: 354494768 heartbeat IPC: 1.06854 cumulative IPC: 1.04846 (Simulation time: 0 hr 10 min 45 sec) 
Heartbeat CPU 0 instructions: 450000003 cycles: 363047391 heartbeat IPC: 1.16923 cumulative IPC: 1.05157 (Simulation time: 0 hr 11 min 1 sec) 
Heartbeat CPU 0 instructions: 460000000 cycles: 372735801 heartbeat IPC: 1.03216 cumulative IPC: 1.05102 (Simulation time: 0 hr 11 min 13 sec) 
Heartbeat CPU 0 instructions: 470000002 cycles: 382405745 heartbeat IPC: 1.03413 cumulative IPC: 1.05055 (Simulation time: 0 hr 11 min 26 sec) 
Heartbeat CPU 0 instructions: 480000002 cycles: 392005571 heartbeat IPC: 1.04169 cumulative IPC: 1.05032 (Simulation time: 0 hr 11 min 39 sec) 
Heartbeat CPU 0 instructions: 490000002 cycles: 415227534 heartbeat IPC: 0.430627 cumulative IPC: 1.01294 (Simulation time: 0 hr 12 min 7 sec) 
Heartbeat CPU 0 instructions: 500000000 cycles: 422263902 heartbeat IPC: 1.42119 cumulative IPC: 1.02027 (Simulation time: 0 hr 12 min 32 sec) 
Heartbeat CPU 0 instructions: 510000002 cycles: 429070698 heartbeat IPC: 1.46912 cumulative IPC: 1.02793 (Simulation time: 0 hr 12 min 57 sec) 
Heartbeat CPU 0 instructions: 520000000 cycles: 435962769 heartbeat IPC: 1.45094 cumulative IPC: 1.03511 (Simulation time: 0 hr 13 min 22 sec) 
Heartbeat CPU 0 instructions: 530000000 cycles: 442747004 heartbeat IPC: 1.47401 cumulative IPC: 1.04233 (Simulation time: 0 hr 13 min 47 sec) 
Heartbeat CPU 0 instructions: 540000003 cycles: 449559255 heartbeat IPC: 1.46794 cumulative IPC: 1.04925 (Simulation time: 0 hr 14 min 11 sec) 
Heartbeat CPU 0 instructions: 550000000 cycles: 456324037 heartbeat IPC: 1.47824 cumulative IPC: 1.05606 (Simulation time: 0 hr 14 min 36 sec) 
Heartbeat CPU 0 instructions: 560000000 cycles: 467110819 heartbeat IPC: 0.927061 cumulative IPC: 1.05287 (Simulation time: 0 hr 15 min 3 sec) 
Heartbeat CPU 0 instructions: 570000001 cycles: 487069112 heartbeat IPC: 0.501045 cumulative IPC: 1.02876 (Simulation time: 0 hr 15 min 35 sec) 
Heartbeat CPU 0 instructions: 580000002 cycles: 493719160 heartbeat IPC: 1.50375 cumulative IPC: 1.03558 (Simulation time: 0 hr 16 min 0 sec) 
Heartbeat CPU 0 instructions: 590000000 cycles: 500458814 heartbeat IPC: 1.48376 cumulative IPC: 1.042 (Simulation time: 0 hr 16 min 24 sec) 
Heartbeat CPU 0 instructions: 600000000 cycles: 507069639 heartbeat IPC: 1.51267 cumulative IPC: 1.04853 (Simulation time: 0 hr 16 min 48 sec) 
Heartbeat CPU 0 instructions: 610000001 cycles: 513734472 heartbeat IPC: 1.50041 cumulative IPC: 1.05476 (Simulation time: 0 hr 17 min 13 sec) 
Heartbeat CPU 0 instructions: 620000001 cycles: 520263686 heartbeat IPC: 1.53158 cumulative IPC: 1.06111 (Simulation time: 0 hr 17 min 37 sec) 
Heartbeat CPU 0 instructions: 630000003 cycles: 527179582 heartbeat IPC: 1.44594 cumulative IPC: 1.06646 (Simulation time: 0 hr 18 min 1 sec) 
Heartbeat CPU 0 instructions: 640000000 cycles: 547888011 heartbeat IPC: 0.482895 cumulative IPC: 1.04312 (Simulation time: 0 hr 18 min 34 sec) 
Heartbeat CPU 0 instructions: 650000000 cycles: 554717965 heartbeat IPC: 1.46414 cumulative IPC: 1.0486 (Simulation time: 0 hr 18 min 59 sec) 
Heartbeat CPU 0 instructions: 660000000 cycles: 561455796 heartbeat IPC: 1.48416 cumulative IPC: 1.05413 (Simulation time: 0 hr 19 min 23 sec) 
Heartbeat CPU 0 instructions: 670000002 cycles: 568134416 heartbeat IPC: 1.49732 cumulative IPC: 1.05963 (Simulation time: 0 hr 19 min 47 sec) 
Heartbeat CPU 0 instructions: 680000002 cycles: 574674796 heartbeat IPC: 1.52896 cumulative IPC: 1.06527 (Simulation time: 0 hr 20 min 12 sec) 
Heartbeat CPU 0 instructions: 690000001 cycles: 581172759 heartbeat IPC: 1.53894 cumulative IPC: 1.07085 (Simulation time: 0 hr 20 min 36 sec) 
Heartbeat CPU 0 instructions: 700000003 cycles: 587864810 heartbeat IPC: 1.49431 cumulative IPC: 1.07594 (Simulation time: 0 hr 21 min 0 sec) 
Heartbeat CPU 0 instructions: 710000001 cycles: 606136017 heartbeat IPC: 0.547309 cumulative IPC: 1.05916 (Simulation time: 0 hr 21 min 31 sec) 
Heartbeat CPU 0 instructions: 720000002 cycles: 615591245 heartbeat IPC: 1.05762 cumulative IPC: 1.05914 (Simulation time: 0 hr 21 min 56 sec) 
Heartbeat CPU 0 instructions: 730000002 cycles: 622222840 heartbeat IPC: 1.50793 cumulative IPC: 1.06417 (Simulation time: 0 hr 22 min 21 sec) 
Heartbeat CPU 0 instructions: 740000002 cycles: 628962777 heartbeat IPC: 1.48369 cumulative IPC: 1.06889 (Simulation time: 0 hr 22 min 45 sec) 
Heartbeat CPU 0 instructions: 750000000 cycles: 635509197 heartbeat IPC: 1.52755 cumulative IPC: 1.07385 (Simulation time: 0 hr 23 min 9 sec) 
Heartbeat CPU 0 instructions: 760000000 cycles: 642071006 heartbeat IPC: 1.52397 cumulative IPC: 1.07868 (Simulation time: 0 hr 23 min 33 sec) 
Heartbeat CPU 0 instructions: 770000000 cycles: 648641063 heartbeat IPC: 1.52206 cumulative IPC: 1.08339 (Simulation time: 0 hr 23 min 57 sec) 
Heartbeat CPU 0 instructions: 780000002 cycles: 655349002 heartbeat IPC: 1.49077 cumulative IPC: 1.08776 (Simulation time: 0 hr 24 min 21 sec) 
Heartbeat CPU 0 instructions: 790000000 cycles: 674924242 heartbeat IPC: 0.510849 cumulative IPC: 1.07024 (Simulation time: 0 hr 24 min 53 sec) 
Heartbeat CPU 0 instructions: 800000000 cycles: 681728405 heartbeat IPC: 1.46969 cumulative IPC: 1.07441 (Simulation time: 0 hr 25 min 17 sec) 
Heartbeat CPU 0 instructions: 810000000 cycles: 688435882 heartbeat IPC: 1.49087 cumulative IPC: 1.07866 (Simulation time: 0 hr 25 min 42 sec) 
Heartbeat CPU 0 instructions: 820000000 cycles: 695012431 heartbeat IPC: 1.52055 cumulative IPC: 1.08303 (Simulation time: 0 hr 26 min 6 sec) 
Heartbeat CPU 0 instructions: 830000002 cycles: 701574267 heartbeat IPC: 1.52396 cumulative IPC: 1.08734 (Simulation time: 0 hr 26 min 30 sec) 
Heartbeat CPU 0 instructions: 840000002 cycles: 708109265 heartbeat IPC: 1.53022 cumulative IPC: 1.09161 (Simulation time: 0 hr 26 min 54 sec) 
Heartbeat CPU 0 instructions: 850000001 cycles: 714783923 heartbeat IPC: 1.4982 cumulative IPC: 1.09557 (Simulation time: 0 hr 27 min 19 sec) 
Heartbeat CPU 0 instructions: 860000000 cycles: 734574271 heartbeat IPC: 0.505297 cumulative IPC: 1.07899 (Simulation time: 0 hr 27 min 51 sec) 
Heartbeat CPU 0 instructions: 870000002 cycles: 741297541 heartbeat IPC: 1.48737 cumulative IPC: 1.08285 (Simulation time: 0 hr 28 min 15 sec) 
Heartbeat CPU 0 instructions: 880000000 cycles: 747968393 heartbeat IPC: 1.49906 cumulative IPC: 1.08672 (Simulation time: 0 hr 28 min 39 sec) 
Heartbeat CPU 0 instructions: 890000002 cycles: 754614938 heartbeat IPC: 1.50454 cumulative IPC: 1.09055 (Simulation time: 0 hr 29 min 4 sec) 
Heartbeat CPU 0 instructions: 900000002 cycles: 761206429 heartbeat IPC: 1.51711 cumulative IPC: 1.0944 (Simulation time: 0 hr 29 min 28 sec) 
Heartbeat CPU 0 instructions: 910000000 cycles: 767761115 heartbeat IPC: 1.52563 cumulative IPC: 1.09823 (Simulation time: 0 hr 29 min 52 sec) 
Heartbeat CPU 0 instructions: 920000001 cycles: 774445926 heartbeat IPC: 1.49593 cumulative IPC: 1.1018 (Simulation time: 0 hr 30 min 16 sec) 
Heartbeat CPU 0 instructions: 930000003 cycles: 781057888 heartbeat IPC: 1.51241 cumulative IPC: 1.10542 (Simulation time: 0 hr 30 min 41 sec) 
Heartbeat CPU 0 instructions: 940000000 cycles: 801144254 heartbeat IPC: 0.49785 cumulative IPC: 1.08959 (Simulation time: 0 hr 31 min 13 sec) 
Heartbeat CPU 0 instructions: 950000000 cycles: 807851524 heartbeat IPC: 1.49092 cumulative IPC: 1.09305 (Simulation time: 0 hr 31 min 37 sec) 
Heartbeat CPU 0 instructions: 960000001 cycles: 814519142 heartbeat IPC: 1.49979 cumulative IPC: 1.09651 (Simulation time: 0 hr 32 min 1 sec) 
Heartbeat CPU 0 instructions: 970000000 cycles: 821047089 heartbeat IPC: 1.53188 cumulative IPC: 1.1001 (Simulation time: 0 hr 32 min 26 sec) 
Heartbeat CPU 0 instructions: 980000001 cycles: 827633714 heartbeat IPC: 1.51823 cumulative IPC: 1.10355 (Simulation time: 0 hr 32 min 50 sec) 
Heartbeat CPU 0 instructions: 990000000 cycles: 834236735 heartbeat IPC: 1.51446 cumulative IPC: 1.10693 (Simulation time: 0 hr 33 min 14 sec) 
Heartbeat CPU 0 instructions: 1000000003 cycles: 840869782 heartbeat IPC: 1.5076 cumulative IPC: 1.11021 (Simulation time: 0 hr 33 min 39 sec) 
Heartbeat CPU 0 instructions: 1010000000 cycles: 861154356 heartbeat IPC: 0.492985 cumulative IPC: 1.09514 (Simulation time: 0 hr 34 min 12 sec) 
Heartbeat CPU 0 instructions: 1020000002 cycles: 867814254 heartbeat IPC: 1.50152 cumulative IPC: 1.09837 (Simulation time: 0 hr 34 min 37 sec) 
Heartbeat CPU 0 instructions: 1030000000 cycles: 874445698 heartbeat IPC: 1.50797 cumulative IPC: 1.10159 (Simulation time: 0 hr 35 min 2 sec) 
Heartbeat CPU 0 instructions: 1040000000 cycles: 881006331 heartbeat IPC: 1.52424 cumulative IPC: 1.10485 (Simulation time: 0 hr 35 min 27 sec) 
Heartbeat CPU 0 instructions: 1050000001 cycles: 887445079 heartbeat IPC: 1.5531 cumulative IPC: 1.10821 (Simulation time: 0 hr 35 min 52 sec) 
Heartbeat CPU 0 instructions: 1060000000 cycles: 894038829 heartbeat IPC: 1.51659 cumulative IPC: 1.11133 (Simulation time: 0 hr 36 min 16 sec) 
Heartbeat CPU 0 instructions: 1070000001 cycles: 900718626 heartbeat IPC: 1.49705 cumulative IPC: 1.11429 (Simulation time: 0 hr 36 min 41 sec) 
Heartbeat CPU 0 instructions: 1080000002 cycles: 914871521 heartbeat IPC: 0.706569 cumulative IPC: 1.10777 (Simulation time: 0 hr 37 min 12 sec) 
Heartbeat CPU 0 instructions: 1090000001 cycles: 926689925 heartbeat IPC: 0.846138 cumulative IPC: 1.10432 (Simulation time: 0 hr 37 min 39 sec) 
Heartbeat CPU 0 instructions: 1100000000 cycles: 933311825 heartbeat IPC: 1.51014 cumulative IPC: 1.1073 (Simulation time: 0 hr 38 min 4 sec) 
Finished CPU 0 instructions: 1000000000 cycles: 903101437 cumulative IPC: 1.1073 (Simulation time: 0 hr 38 min 4 sec) 

ChampSim completed all CPUs

Region of Interest Statistics

CPU 0 cumulative IPC: 1.1073 instructions: 1000000000 cycles: 903101437
L1D TOTAL     ACCESS:  230629120  HIT:  228389429  MISS:    2239691
L1D LOAD      ACCESS:  142344598  HIT:  140999893  MISS:    1344705
L1D RFO       ACCESS:   88284522  HIT:   87389536  MISS:     894986
L1D PREFETCH  ACCESS:          0  HIT:          0  MISS:          0
L1D WRITEBACK ACCESS:          0  HIT:          0  MISS:          0
L1D PREFETCH  REQUESTED:          0  ISSUED:          0  USEFUL:          0  USELESS:          0
L1D AVERAGE MISS LATENCY: 203.296 cycles
L1I TOTAL     ACCESS:  186026030  HIT:  186025959  MISS:         71
L1I LOAD      ACCESS:  186026030  HIT:  186025959  MISS:         71
L1I RFO       ACCESS:          0  HIT:          0  MISS:          0
L1I PREFETCH  ACCESS:          0  HIT:          0  MISS:          0
L1I WRITEBACK ACCESS:          0  HIT:          0  MISS:          0
L1I PREFETCH  REQUESTED:          0  ISSUED:          0  USEFUL:          0  USELESS:          0
L1I AVERAGE MISS LATENCY: 228.338 cycles
L2C TOTAL     ACCESS:    3134860  HIT:     894569  MISS:    2240291
L2C LOAD      ACCESS:    1344776  HIT:        406  MISS:    1344370
L2C RFO       ACCESS:     894983  HIT:        910  MISS:     894073
L2C PREFETCH  ACCESS:          0  HIT:          0  MISS:          0
L2C WRITEBACK ACCESS:     895101  HIT:     893253  MISS:       1848
L2C PREFETCH  REQUESTED:          0  ISSUED:          0  USEFUL:          0  USELESS:          0
L2C AVERAGE MISS LATENCY: 190.787 cycles
LLC TOTAL     ACCESS:    3132252  HIT:     658377  MISS:    2473875
LLC LOAD      ACCESS:    1344370  HIT:     208258  MISS:    1136112
LLC RFO       ACCESS:     894073  HIT:     177358  MISS:     716715
LLC PREFETCH  ACCESS:          0  HIT:          0  MISS:          0
LLC WRITEBACK ACCESS:     893809  HIT:     272761  MISS:     621048
LLC PREFETCH  REQUESTED:          0  ISSUED:          0  USEFUL:          0  USELESS:          0
LLC AVERAGE MISS LATENCY: 136.177 cycles
Major fault: 0 Minor fault: 16776
==============================
Perceptron RRIP Stats:
   Num Updates:          88676
   Num Primary Trains:   1199
   Num Secondary Trains: 1323
==============================
primary_perceptron #0: 1 5 -3 3 -1 3 -1 -3 -1 -1 -1 3 5 5 7 -27 
secondary_perceptron #0: 3 1 -3 5 -1 1 1 -3 -1 -1 -1 5 9 7 9 3 1 1 -1 1 -39 


DRAM Statistics
 CHANNEL 0
 RQ ROW_BUFFER_HIT:     376843  ROW_BUFFER_MISS:    1475975
 DBUS_CONGESTED:     519443
 WQ ROW_BUFFER_HIT:     412318  ROW_BUFFER_MISS:     299343  FULL:          0

 AVG_CONGESTED_CYCLE: 6

CPU 0 Branch Prediction Accuracy: 91.4265% MPKI: 10.8386 Average ROB Occupancy at Mispredict: 17.0544

Branch types
NOT_BRANCH: 873580538 87.3581%
BRANCH_DIRECT_JUMP: 10632506 1.06325%
BRANCH_INDIRECT: 238987 0.0238987%
BRANCH_CONDITIONAL: 92907924 9.29079%
BRANCH_DIRECT_CALL: 11320021 1.132%
BRANCH_INDIRECT_CALL: 0 0%
BRANCH_RETURN: 11320025 1.132%
BRANCH_OTHER: 0 0%

