
*** ChampSim Multicore Out-of-Order Simulator ***

Warmup Instructions: 100000000
Simulation Instructions: 1000000000
Number of CPUs: 1
LLC sets: 2048
LLC ways: 16
Off-chip DRAM Size: 4096 MB Channels: 1 Width: 64-bit Data Rate: 3200 MT/s

CPU 0 runs /scratch/user/kevin.weston/dpc3-traces/654.champsimtrace.xz
CPU 0 Bimodal branch predictor
Initialize SRRIP state
Heartbeat CPU 0 instructions: 10000000 cycles: 2987068 heartbeat IPC: 3.34776 cumulative IPC: 3.34776 (Simulation time: 0 hr 0 min 20 sec) 
Heartbeat CPU 0 instructions: 20000003 cycles: 6017318 heartbeat IPC: 3.30006 cumulative IPC: 3.32374 (Simulation time: 0 hr 0 min 39 sec) 
Heartbeat CPU 0 instructions: 30000000 cycles: 8981688 heartbeat IPC: 3.3734 cumulative IPC: 3.34013 (Simulation time: 0 hr 0 min 59 sec) 
Heartbeat CPU 0 instructions: 40000000 cycles: 12020272 heartbeat IPC: 3.29101 cumulative IPC: 3.32771 (Simulation time: 0 hr 1 min 19 sec) 
Heartbeat CPU 0 instructions: 50000003 cycles: 15223917 heartbeat IPC: 3.12145 cumulative IPC: 3.28431 (Simulation time: 0 hr 1 min 39 sec) 
Heartbeat CPU 0 instructions: 60000000 cycles: 18233007 heartbeat IPC: 3.32326 cumulative IPC: 3.29074 (Simulation time: 0 hr 1 min 58 sec) 
Heartbeat CPU 0 instructions: 70000001 cycles: 21221320 heartbeat IPC: 3.34637 cumulative IPC: 3.29857 (Simulation time: 0 hr 2 min 18 sec) 
Heartbeat CPU 0 instructions: 80000001 cycles: 24228330 heartbeat IPC: 3.32556 cumulative IPC: 3.30192 (Simulation time: 0 hr 2 min 38 sec) 
Heartbeat CPU 0 instructions: 90000000 cycles: 27260243 heartbeat IPC: 3.29825 cumulative IPC: 3.30151 (Simulation time: 0 hr 2 min 58 sec) 
Heartbeat CPU 0 instructions: 100000001 cycles: 30210390 heartbeat IPC: 3.38966 cumulative IPC: 3.31012 (Simulation time: 0 hr 3 min 17 sec) 

Warmup complete CPU 0 instructions: 100000001 cycles: 30210390 (Simulation time: 0 hr 3 min 17 sec) 

Heartbeat CPU 0 instructions: 110000000 cycles: 39499341 heartbeat IPC: 1.07655 cumulative IPC: 1.07655 (Simulation time: 0 hr 3 min 30 sec) 
Heartbeat CPU 0 instructions: 120000003 cycles: 49104665 heartbeat IPC: 1.04109 cumulative IPC: 1.05852 (Simulation time: 0 hr 3 min 43 sec) 
Heartbeat CPU 0 instructions: 130000003 cycles: 58818733 heartbeat IPC: 1.02943 cumulative IPC: 1.04865 (Simulation time: 0 hr 3 min 55 sec) 
Heartbeat CPU 0 instructions: 140000000 cycles: 68200391 heartbeat IPC: 1.06591 cumulative IPC: 1.05291 (Simulation time: 0 hr 4 min 8 sec) 
Heartbeat CPU 0 instructions: 150000002 cycles: 77570582 heartbeat IPC: 1.06721 cumulative IPC: 1.05574 (Simulation time: 0 hr 4 min 21 sec) 
Heartbeat CPU 0 instructions: 160000003 cycles: 87184403 heartbeat IPC: 1.04017 cumulative IPC: 1.05311 (Simulation time: 0 hr 4 min 33 sec) 
Heartbeat CPU 0 instructions: 170000000 cycles: 96667457 heartbeat IPC: 1.05451 cumulative IPC: 1.05331 (Simulation time: 0 hr 4 min 46 sec) 
Heartbeat CPU 0 instructions: 180000003 cycles: 105911695 heartbeat IPC: 1.08176 cumulative IPC: 1.05678 (Simulation time: 0 hr 4 min 59 sec) 
Heartbeat CPU 0 instructions: 190000001 cycles: 115285493 heartbeat IPC: 1.0668 cumulative IPC: 1.05789 (Simulation time: 0 hr 5 min 12 sec) 
Heartbeat CPU 0 instructions: 200000001 cycles: 124777445 heartbeat IPC: 1.05352 cumulative IPC: 1.05745 (Simulation time: 0 hr 5 min 25 sec) 
Heartbeat CPU 0 instructions: 210000002 cycles: 134455280 heartbeat IPC: 1.03329 cumulative IPC: 1.05521 (Simulation time: 0 hr 5 min 38 sec) 
Heartbeat CPU 0 instructions: 220000000 cycles: 143836365 heartbeat IPC: 1.06597 cumulative IPC: 1.0561 (Simulation time: 0 hr 5 min 51 sec) 
Heartbeat CPU 0 instructions: 230000001 cycles: 153546347 heartbeat IPC: 1.02987 cumulative IPC: 1.05403 (Simulation time: 0 hr 6 min 3 sec) 
Heartbeat CPU 0 instructions: 240000003 cycles: 162957641 heartbeat IPC: 1.06255 cumulative IPC: 1.05464 (Simulation time: 0 hr 6 min 16 sec) 
Heartbeat CPU 0 instructions: 250000001 cycles: 172403326 heartbeat IPC: 1.05868 cumulative IPC: 1.0549 (Simulation time: 0 hr 6 min 29 sec) 
Heartbeat CPU 0 instructions: 260000002 cycles: 182017017 heartbeat IPC: 1.04018 cumulative IPC: 1.05397 (Simulation time: 0 hr 6 min 41 sec) 
Heartbeat CPU 0 instructions: 270000001 cycles: 191466112 heartbeat IPC: 1.0583 cumulative IPC: 1.05423 (Simulation time: 0 hr 6 min 54 sec) 
Heartbeat CPU 0 instructions: 280000003 cycles: 201010637 heartbeat IPC: 1.04772 cumulative IPC: 1.05386 (Simulation time: 0 hr 7 min 7 sec) 
Heartbeat CPU 0 instructions: 290000000 cycles: 210726948 heartbeat IPC: 1.0292 cumulative IPC: 1.05254 (Simulation time: 0 hr 7 min 19 sec) 
Heartbeat CPU 0 instructions: 300000002 cycles: 220352233 heartbeat IPC: 1.03893 cumulative IPC: 1.05185 (Simulation time: 0 hr 7 min 32 sec) 
Heartbeat CPU 0 instructions: 310000001 cycles: 230100941 heartbeat IPC: 1.02578 cumulative IPC: 1.05057 (Simulation time: 0 hr 7 min 44 sec) 
Heartbeat CPU 0 instructions: 320000002 cycles: 239847305 heartbeat IPC: 1.02602 cumulative IPC: 1.04943 (Simulation time: 0 hr 7 min 56 sec) 
Heartbeat CPU 0 instructions: 330000000 cycles: 249593416 heartbeat IPC: 1.02605 cumulative IPC: 1.04839 (Simulation time: 0 hr 8 min 8 sec) 
Heartbeat CPU 0 instructions: 340000001 cycles: 259212271 heartbeat IPC: 1.03962 cumulative IPC: 1.04803 (Simulation time: 0 hr 8 min 21 sec) 
Heartbeat CPU 0 instructions: 350000001 cycles: 268928472 heartbeat IPC: 1.02921 cumulative IPC: 1.04726 (Simulation time: 0 hr 8 min 33 sec) 
Heartbeat CPU 0 instructions: 360000000 cycles: 278611296 heartbeat IPC: 1.03276 cumulative IPC: 1.04669 (Simulation time: 0 hr 8 min 46 sec) 
Heartbeat CPU 0 instructions: 370000000 cycles: 288254873 heartbeat IPC: 1.03696 cumulative IPC: 1.04633 (Simulation time: 0 hr 8 min 58 sec) 
Heartbeat CPU 0 instructions: 380000002 cycles: 297108903 heartbeat IPC: 1.12943 cumulative IPC: 1.04909 (Simulation time: 0 hr 9 min 12 sec) 
Heartbeat CPU 0 instructions: 390000002 cycles: 306529886 heartbeat IPC: 1.06146 cumulative IPC: 1.04951 (Simulation time: 0 hr 9 min 25 sec) 
Heartbeat CPU 0 instructions: 400000001 cycles: 316179101 heartbeat IPC: 1.03635 cumulative IPC: 1.04907 (Simulation time: 0 hr 9 min 38 sec) 
Heartbeat CPU 0 instructions: 410000002 cycles: 325859190 heartbeat IPC: 1.03305 cumulative IPC: 1.04854 (Simulation time: 0 hr 9 min 50 sec) 
Heartbeat CPU 0 instructions: 420000000 cycles: 335573750 heartbeat IPC: 1.02938 cumulative IPC: 1.04793 (Simulation time: 0 hr 10 min 3 sec) 
Heartbeat CPU 0 instructions: 430000000 cycles: 344677926 heartbeat IPC: 1.0984 cumulative IPC: 1.04939 (Simulation time: 0 hr 10 min 16 sec) 
Heartbeat CPU 0 instructions: 440000000 cycles: 354041385 heartbeat IPC: 1.06798 cumulative IPC: 1.04993 (Simulation time: 0 hr 10 min 30 sec) 
Heartbeat CPU 0 instructions: 450000003 cycles: 362607365 heartbeat IPC: 1.16741 cumulative IPC: 1.05296 (Simulation time: 0 hr 10 min 45 sec) 
Heartbeat CPU 0 instructions: 460000000 cycles: 372306668 heartbeat IPC: 1.031 cumulative IPC: 1.05234 (Simulation time: 0 hr 10 min 57 sec) 
Heartbeat CPU 0 instructions: 470000002 cycles: 381986011 heartbeat IPC: 1.03313 cumulative IPC: 1.05181 (Simulation time: 0 hr 11 min 10 sec) 
Heartbeat CPU 0 instructions: 480000002 cycles: 391604137 heartbeat IPC: 1.0397 cumulative IPC: 1.05148 (Simulation time: 0 hr 11 min 22 sec) 
Heartbeat CPU 0 instructions: 490000002 cycles: 415974207 heartbeat IPC: 0.410339 cumulative IPC: 1.01098 (Simulation time: 0 hr 11 min 51 sec) 
Heartbeat CPU 0 instructions: 500000000 cycles: 423023977 heartbeat IPC: 1.41849 cumulative IPC: 1.01829 (Simulation time: 0 hr 12 min 15 sec) 
Heartbeat CPU 0 instructions: 510000002 cycles: 429867520 heartbeat IPC: 1.46123 cumulative IPC: 1.02588 (Simulation time: 0 hr 12 min 39 sec) 
Heartbeat CPU 0 instructions: 520000000 cycles: 436709590 heartbeat IPC: 1.46155 cumulative IPC: 1.03321 (Simulation time: 0 hr 13 min 3 sec) 
Heartbeat CPU 0 instructions: 530000000 cycles: 443556832 heartbeat IPC: 1.46044 cumulative IPC: 1.04029 (Simulation time: 0 hr 13 min 27 sec) 
Heartbeat CPU 0 instructions: 540000003 cycles: 450430772 heartbeat IPC: 1.45477 cumulative IPC: 1.04707 (Simulation time: 0 hr 13 min 52 sec) 
Heartbeat CPU 0 instructions: 550000000 cycles: 457298614 heartbeat IPC: 1.45606 cumulative IPC: 1.05365 (Simulation time: 0 hr 14 min 16 sec) 
Heartbeat CPU 0 instructions: 560000000 cycles: 468858079 heartbeat IPC: 0.865092 cumulative IPC: 1.04868 (Simulation time: 0 hr 14 min 43 sec) 
Heartbeat CPU 0 instructions: 570000001 cycles: 491185839 heartbeat IPC: 0.447873 cumulative IPC: 1.01958 (Simulation time: 0 hr 15 min 16 sec) 
Heartbeat CPU 0 instructions: 580000002 cycles: 498062129 heartbeat IPC: 1.45427 cumulative IPC: 1.02597 (Simulation time: 0 hr 15 min 40 sec) 
Heartbeat CPU 0 instructions: 590000000 cycles: 504895268 heartbeat IPC: 1.46346 cumulative IPC: 1.03226 (Simulation time: 0 hr 16 min 4 sec) 
Heartbeat CPU 0 instructions: 600000000 cycles: 511721131 heartbeat IPC: 1.46502 cumulative IPC: 1.0384 (Simulation time: 0 hr 16 min 28 sec) 
Heartbeat CPU 0 instructions: 610000001 cycles: 518569962 heartbeat IPC: 1.4601 cumulative IPC: 1.04431 (Simulation time: 0 hr 16 min 53 sec) 
Heartbeat CPU 0 instructions: 620000001 cycles: 525447289 heartbeat IPC: 1.45405 cumulative IPC: 1.05 (Simulation time: 0 hr 17 min 17 sec) 
Heartbeat CPU 0 instructions: 630000003 cycles: 532379006 heartbeat IPC: 1.44264 cumulative IPC: 1.05542 (Simulation time: 0 hr 17 min 41 sec) 
Heartbeat CPU 0 instructions: 640000000 cycles: 555612142 heartbeat IPC: 0.43042 cumulative IPC: 1.02778 (Simulation time: 0 hr 18 min 15 sec) 
Heartbeat CPU 0 instructions: 650000000 cycles: 562630260 heartbeat IPC: 1.42488 cumulative IPC: 1.03302 (Simulation time: 0 hr 18 min 39 sec) 
Heartbeat CPU 0 instructions: 660000000 cycles: 569470779 heartbeat IPC: 1.46188 cumulative IPC: 1.03846 (Simulation time: 0 hr 19 min 4 sec) 
Heartbeat CPU 0 instructions: 670000002 cycles: 576296319 heartbeat IPC: 1.46509 cumulative IPC: 1.04379 (Simulation time: 0 hr 19 min 28 sec) 
Heartbeat CPU 0 instructions: 680000002 cycles: 583124799 heartbeat IPC: 1.46445 cumulative IPC: 1.04899 (Simulation time: 0 hr 19 min 52 sec) 
Heartbeat CPU 0 instructions: 690000001 cycles: 589985300 heartbeat IPC: 1.45762 cumulative IPC: 1.054 (Simulation time: 0 hr 20 min 16 sec) 
Heartbeat CPU 0 instructions: 700000003 cycles: 596888776 heartbeat IPC: 1.44855 cumulative IPC: 1.0588 (Simulation time: 0 hr 20 min 40 sec) 
Heartbeat CPU 0 instructions: 710000001 cycles: 617758036 heartbeat IPC: 0.479174 cumulative IPC: 1.03821 (Simulation time: 0 hr 21 min 13 sec) 
Heartbeat CPU 0 instructions: 720000002 cycles: 627569027 heartbeat IPC: 1.01927 cumulative IPC: 1.0379 (Simulation time: 0 hr 21 min 38 sec) 
Heartbeat CPU 0 instructions: 730000002 cycles: 634399751 heartbeat IPC: 1.46397 cumulative IPC: 1.04272 (Simulation time: 0 hr 22 min 3 sec) 
Heartbeat CPU 0 instructions: 740000002 cycles: 641247480 heartbeat IPC: 1.46034 cumulative IPC: 1.0474 (Simulation time: 0 hr 22 min 27 sec) 
Heartbeat CPU 0 instructions: 750000000 cycles: 648060200 heartbeat IPC: 1.46784 cumulative IPC: 1.05204 (Simulation time: 0 hr 22 min 51 sec) 
Heartbeat CPU 0 instructions: 760000000 cycles: 654912232 heartbeat IPC: 1.45942 cumulative IPC: 1.0565 (Simulation time: 0 hr 23 min 15 sec) 
Heartbeat CPU 0 instructions: 770000000 cycles: 661793701 heartbeat IPC: 1.45318 cumulative IPC: 1.06083 (Simulation time: 0 hr 23 min 39 sec) 
Heartbeat CPU 0 instructions: 780000002 cycles: 668724565 heartbeat IPC: 1.44282 cumulative IPC: 1.06497 (Simulation time: 0 hr 24 min 4 sec) 
Heartbeat CPU 0 instructions: 790000000 cycles: 691592781 heartbeat IPC: 0.437288 cumulative IPC: 1.04327 (Simulation time: 0 hr 24 min 38 sec) 
Heartbeat CPU 0 instructions: 800000000 cycles: 698557892 heartbeat IPC: 1.43573 cumulative IPC: 1.04736 (Simulation time: 0 hr 25 min 2 sec) 
Heartbeat CPU 0 instructions: 810000000 cycles: 705393299 heartbeat IPC: 1.46297 cumulative IPC: 1.05157 (Simulation time: 0 hr 25 min 26 sec) 
Heartbeat CPU 0 instructions: 820000000 cycles: 712217437 heartbeat IPC: 1.46539 cumulative IPC: 1.05571 (Simulation time: 0 hr 25 min 50 sec) 
Heartbeat CPU 0 instructions: 830000002 cycles: 719040946 heartbeat IPC: 1.46552 cumulative IPC: 1.05977 (Simulation time: 0 hr 26 min 14 sec) 
Heartbeat CPU 0 instructions: 840000002 cycles: 725908983 heartbeat IPC: 1.45602 cumulative IPC: 1.06368 (Simulation time: 0 hr 26 min 38 sec) 
Heartbeat CPU 0 instructions: 850000001 cycles: 732822192 heartbeat IPC: 1.44651 cumulative IPC: 1.06745 (Simulation time: 0 hr 27 min 3 sec) 
Heartbeat CPU 0 instructions: 860000000 cycles: 755799035 heartbeat IPC: 0.435221 cumulative IPC: 1.04743 (Simulation time: 0 hr 27 min 36 sec) 
Heartbeat CPU 0 instructions: 870000002 cycles: 762904360 heartbeat IPC: 1.4074 cumulative IPC: 1.05092 (Simulation time: 0 hr 28 min 0 sec) 
Heartbeat CPU 0 instructions: 880000000 cycles: 769697751 heartbeat IPC: 1.47202 cumulative IPC: 1.05478 (Simulation time: 0 hr 28 min 24 sec) 
Heartbeat CPU 0 instructions: 890000002 cycles: 776563775 heartbeat IPC: 1.45645 cumulative IPC: 1.05848 (Simulation time: 0 hr 28 min 49 sec) 
Heartbeat CPU 0 instructions: 900000002 cycles: 783402061 heartbeat IPC: 1.46235 cumulative IPC: 1.06215 (Simulation time: 0 hr 29 min 13 sec) 
Heartbeat CPU 0 instructions: 910000000 cycles: 790247434 heartbeat IPC: 1.46084 cumulative IPC: 1.06574 (Simulation time: 0 hr 29 min 37 sec) 
Heartbeat CPU 0 instructions: 920000001 cycles: 797122348 heartbeat IPC: 1.45456 cumulative IPC: 1.06922 (Simulation time: 0 hr 30 min 1 sec) 
Heartbeat CPU 0 instructions: 930000003 cycles: 804082918 heartbeat IPC: 1.43666 cumulative IPC: 1.07253 (Simulation time: 0 hr 30 min 25 sec) 
Heartbeat CPU 0 instructions: 940000000 cycles: 827287870 heartbeat IPC: 0.430942 cumulative IPC: 1.05385 (Simulation time: 0 hr 31 min 0 sec) 
Heartbeat CPU 0 instructions: 950000000 cycles: 834213163 heartbeat IPC: 1.44398 cumulative IPC: 1.05721 (Simulation time: 0 hr 31 min 24 sec) 
Heartbeat CPU 0 instructions: 960000001 cycles: 841048469 heartbeat IPC: 1.46299 cumulative IPC: 1.06063 (Simulation time: 0 hr 31 min 48 sec) 
Heartbeat CPU 0 instructions: 970000000 cycles: 847874370 heartbeat IPC: 1.46501 cumulative IPC: 1.06401 (Simulation time: 0 hr 32 min 12 sec) 
Heartbeat CPU 0 instructions: 980000001 cycles: 854709391 heartbeat IPC: 1.46305 cumulative IPC: 1.06731 (Simulation time: 0 hr 32 min 36 sec) 
Heartbeat CPU 0 instructions: 990000000 cycles: 861574095 heartbeat IPC: 1.45673 cumulative IPC: 1.07053 (Simulation time: 0 hr 33 min 0 sec) 
Heartbeat CPU 0 instructions: 1000000003 cycles: 868500476 heartbeat IPC: 1.44376 cumulative IPC: 1.07361 (Simulation time: 0 hr 33 min 25 sec) 
Heartbeat CPU 0 instructions: 1010000000 cycles: 891738334 heartbeat IPC: 0.430332 cumulative IPC: 1.05626 (Simulation time: 0 hr 33 min 58 sec) 
Heartbeat CPU 0 instructions: 1020000002 cycles: 898771122 heartbeat IPC: 1.42191 cumulative IPC: 1.05922 (Simulation time: 0 hr 34 min 23 sec) 
Heartbeat CPU 0 instructions: 1030000000 cycles: 905591941 heartbeat IPC: 1.4661 cumulative IPC: 1.06239 (Simulation time: 0 hr 34 min 47 sec) 
Heartbeat CPU 0 instructions: 1040000000 cycles: 912455080 heartbeat IPC: 1.45706 cumulative IPC: 1.06546 (Simulation time: 0 hr 35 min 11 sec) 
Heartbeat CPU 0 instructions: 1050000001 cycles: 919279401 heartbeat IPC: 1.46535 cumulative IPC: 1.06853 (Simulation time: 0 hr 35 min 35 sec) 
Heartbeat CPU 0 instructions: 1060000000 cycles: 926129910 heartbeat IPC: 1.45975 cumulative IPC: 1.07152 (Simulation time: 0 hr 36 min 0 sec) 
Heartbeat CPU 0 instructions: 1070000001 cycles: 933038497 heartbeat IPC: 1.44747 cumulative IPC: 1.0744 (Simulation time: 0 hr 36 min 24 sec) 
Heartbeat CPU 0 instructions: 1080000002 cycles: 949634756 heartbeat IPC: 0.602545 cumulative IPC: 1.06588 (Simulation time: 0 hr 36 min 55 sec) 
Heartbeat CPU 0 instructions: 1090000001 cycles: 962491269 heartbeat IPC: 0.777816 cumulative IPC: 1.06191 (Simulation time: 0 hr 37 min 22 sec) 
Heartbeat CPU 0 instructions: 1100000000 cycles: 969365277 heartbeat IPC: 1.45476 cumulative IPC: 1.06479 (Simulation time: 0 hr 37 min 47 sec) 
Finished CPU 0 instructions: 1000000000 cycles: 939154888 cumulative IPC: 1.06479 (Simulation time: 0 hr 37 min 47 sec) 

ChampSim completed all CPUs

Region of Interest Statistics

CPU 0 cumulative IPC: 1.06479 instructions: 1000000000 cycles: 939154888
L1D TOTAL     ACCESS:  230590016  HIT:  228350325  MISS:    2239691
L1D LOAD      ACCESS:  142294671  HIT:  140949966  MISS:    1344705
L1D RFO       ACCESS:   88295345  HIT:   87400359  MISS:     894986
L1D PREFETCH  ACCESS:          0  HIT:          0  MISS:          0
L1D WRITEBACK ACCESS:          0  HIT:          0  MISS:          0
L1D PREFETCH  REQUESTED:          0  ISSUED:          0  USEFUL:          0  USELESS:          0
L1D AVERAGE MISS LATENCY: 238.013 cycles
L1I TOTAL     ACCESS:  186084145  HIT:  186084074  MISS:         71
L1I LOAD      ACCESS:  186084145  HIT:  186084074  MISS:         71
L1I RFO       ACCESS:          0  HIT:          0  MISS:          0
L1I PREFETCH  ACCESS:          0  HIT:          0  MISS:          0
L1I WRITEBACK ACCESS:          0  HIT:          0  MISS:          0
L1I PREFETCH  REQUESTED:          0  ISSUED:          0  USEFUL:          0  USELESS:          0
L1I AVERAGE MISS LATENCY: 226.423 cycles
L2C TOTAL     ACCESS:    3134860  HIT:     894556  MISS:    2240304
L2C LOAD      ACCESS:    1344776  HIT:        406  MISS:    1344370
L2C RFO       ACCESS:     894983  HIT:        895  MISS:     894088
L2C PREFETCH  ACCESS:          0  HIT:          0  MISS:          0
L2C WRITEBACK ACCESS:     895101  HIT:     893255  MISS:       1846
L2C PREFETCH  REQUESTED:          0  ISSUED:          0  USEFUL:          0  USELESS:          0
L2C AVERAGE MISS LATENCY: 225.5 cycles
LLC TOTAL     ACCESS:    3133114  HIT:     915818  MISS:    2217296
LLC LOAD      ACCESS:    1344370  HIT:      24168  MISS:    1320202
LLC RFO       ACCESS:     894088  HIT:        141  MISS:     893947
LLC PREFETCH  ACCESS:          0  HIT:          0  MISS:          0
LLC WRITEBACK ACCESS:     894656  HIT:     891509  MISS:       3147
LLC PREFETCH  REQUESTED:          0  ISSUED:          0  USEFUL:          0  USELESS:          0
LLC AVERAGE MISS LATENCY: 187.129 cycles
Major fault: 0 Minor fault: 16776

DRAM Statistics
 CHANNEL 0
 RQ ROW_BUFFER_HIT:     436263  ROW_BUFFER_MISS:    1777869
 DBUS_CONGESTED:     619135
 WQ ROW_BUFFER_HIT:     437613  ROW_BUFFER_MISS:     442150  FULL:          0

 AVG_CONGESTED_CYCLE: 6

CPU 0 Branch Prediction Accuracy: 91.4265% MPKI: 10.8386 Average ROB Occupancy at Mispredict: 17.0582

Branch types
NOT_BRANCH: 873580538 87.3581%
BRANCH_DIRECT_JUMP: 10632506 1.06325%
BRANCH_INDIRECT: 238987 0.0238987%
BRANCH_CONDITIONAL: 92907924 9.29079%
BRANCH_DIRECT_CALL: 11320021 1.132%
BRANCH_INDIRECT_CALL: 0 0%
BRANCH_RETURN: 11320025 1.132%
BRANCH_OTHER: 0 0%

