
*** ChampSim Multicore Out-of-Order Simulator ***

Warmup Instructions: 100000000
Simulation Instructions: 1000000000
Number of CPUs: 1
LLC sets: 2048
LLC ways: 16
Off-chip DRAM Size: 4096 MB Channels: 1 Width: 64-bit Data Rate: 3200 MT/s

CPU 0 runs /scratch/user/kevin.weston/dpc3-traces/657.champsimtrace.xz
CPU 0 Bimodal branch predictor
Initialize SHIP state
Assign rand_sets[0]: 454  LLC: 2048
rand_sets[0]: 454
Assign rand_sets[1]: 1662  LLC: 2048
rand_sets[1]: 1662
Assign rand_sets[2]: 1921  LLC: 2048
rand_sets[2]: 1921
Assign rand_sets[3]: 1131  LLC: 2048
rand_sets[3]: 1131
Assign rand_sets[4]: 331  LLC: 2048
rand_sets[4]: 331
Assign rand_sets[5]: 1531  LLC: 2048
rand_sets[5]: 1531
Assign rand_sets[6]: 482  LLC: 2048
rand_sets[6]: 482
Assign rand_sets[7]: 1275  LLC: 2048
rand_sets[7]: 1275
Assign rand_sets[8]: 1876  LLC: 2048
rand_sets[8]: 1876
Assign rand_sets[9]: 2038  LLC: 2048
rand_sets[9]: 2038
Assign rand_sets[10]: 701  LLC: 2048
rand_sets[10]: 701
Assign rand_sets[11]: 479  LLC: 2048
rand_sets[11]: 479
Assign rand_sets[12]: 892  LLC: 2048
rand_sets[12]: 892
Assign rand_sets[13]: 1820  LLC: 2048
rand_sets[13]: 1820
Assign rand_sets[14]: 1505  LLC: 2048
rand_sets[14]: 1505
Assign rand_sets[15]: 1159  LLC: 2048
rand_sets[15]: 1159
Assign rand_sets[16]: 513  LLC: 2048
rand_sets[16]: 513
Assign rand_sets[17]: 703  LLC: 2048
rand_sets[17]: 703
Assign rand_sets[18]: 561  LLC: 2048
rand_sets[18]: 561
Assign rand_sets[19]: 990  LLC: 2048
rand_sets[19]: 990
Assign rand_sets[20]: 342  LLC: 2048
rand_sets[20]: 342
Assign rand_sets[21]: 882  LLC: 2048
rand_sets[21]: 882
Assign rand_sets[22]: 15  LLC: 2048
rand_sets[22]: 15
Assign rand_sets[23]: 71  LLC: 2048
rand_sets[23]: 71
Assign rand_sets[24]: 1127  LLC: 2048
rand_sets[24]: 1127
Assign rand_sets[25]: 1382  LLC: 2048
rand_sets[25]: 1382
Assign rand_sets[26]: 647  LLC: 2048
rand_sets[26]: 647
Assign rand_sets[27]: 857  LLC: 2048
rand_sets[27]: 857
Assign rand_sets[28]: 1450  LLC: 2048
rand_sets[28]: 1450
Assign rand_sets[29]: 1160  LLC: 2048
rand_sets[29]: 1160
Assign rand_sets[30]: 1852  LLC: 2048
rand_sets[30]: 1852
Assign rand_sets[31]: 1881  LLC: 2048
rand_sets[31]: 1881
Assign rand_sets[32]: 1770  LLC: 2048
rand_sets[32]: 1770
Assign rand_sets[33]: 1622  LLC: 2048
rand_sets[33]: 1622
Assign rand_sets[34]: 275  LLC: 2048
rand_sets[34]: 275
Assign rand_sets[35]: 635  LLC: 2048
rand_sets[35]: 635
Assign rand_sets[36]: 466  LLC: 2048
rand_sets[36]: 466
Assign rand_sets[37]: 1413  LLC: 2048
rand_sets[37]: 1413
Assign rand_sets[38]: 417  LLC: 2048
rand_sets[38]: 417
Assign rand_sets[39]: 472  LLC: 2048
rand_sets[39]: 472
Assign rand_sets[40]: 1340  LLC: 2048
rand_sets[40]: 1340
Assign rand_sets[41]: 852  LLC: 2048
rand_sets[41]: 852
Assign rand_sets[42]: 1365  LLC: 2048
rand_sets[42]: 1365
Assign rand_sets[43]: 47  LLC: 2048
rand_sets[43]: 47
Assign rand_sets[44]: 823  LLC: 2048
rand_sets[44]: 823
Assign rand_sets[45]: 686  LLC: 2048
rand_sets[45]: 686
Assign rand_sets[46]: 1637  LLC: 2048
rand_sets[46]: 1637
Assign rand_sets[47]: 1115  LLC: 2048
rand_sets[47]: 1115
Assign rand_sets[48]: 986  LLC: 2048
rand_sets[48]: 986
Assign rand_sets[49]: 258  LLC: 2048
rand_sets[49]: 258
Assign rand_sets[50]: 633  LLC: 2048
rand_sets[50]: 633
Assign rand_sets[51]: 920  LLC: 2048
rand_sets[51]: 920
Assign rand_sets[52]: 204  LLC: 2048
rand_sets[52]: 204
Assign rand_sets[53]: 227  LLC: 2048
rand_sets[53]: 227
Assign rand_sets[54]: 1818  LLC: 2048
rand_sets[54]: 1818
Assign rand_sets[55]: 886  LLC: 2048
rand_sets[55]: 886
Assign rand_sets[56]: 1422  LLC: 2048
rand_sets[56]: 1422
Assign rand_sets[57]: 607  LLC: 2048
rand_sets[57]: 607
Assign rand_sets[58]: 217  LLC: 2048
rand_sets[58]: 217
Assign rand_sets[59]: 1945  LLC: 2048
rand_sets[59]: 1945
Assign rand_sets[60]: 143  LLC: 2048
rand_sets[60]: 143
Assign rand_sets[61]: 1311  LLC: 2048
rand_sets[61]: 1311
Assign rand_sets[62]: 319  LLC: 2048
rand_sets[62]: 319
Assign rand_sets[63]: 1846  LLC: 2048
rand_sets[63]: 1846
Assign rand_sets[64]: 238  LLC: 2048
rand_sets[64]: 238
Assign rand_sets[65]: 67  LLC: 2048
rand_sets[65]: 67
Assign rand_sets[66]: 1912  LLC: 2048
rand_sets[66]: 1912
Assign rand_sets[67]: 1613  LLC: 2048
rand_sets[67]: 1613
Assign rand_sets[68]: 1293  LLC: 2048
rand_sets[68]: 1293
Assign rand_sets[69]: 1018  LLC: 2048
rand_sets[69]: 1018
Assign rand_sets[70]: 1982  LLC: 2048
rand_sets[70]: 1982
Assign rand_sets[71]: 1702  LLC: 2048
rand_sets[71]: 1702
Assign rand_sets[72]: 1498  LLC: 2048
rand_sets[72]: 1498
Assign rand_sets[73]: 228  LLC: 2048
rand_sets[73]: 228
Assign rand_sets[74]: 1414  LLC: 2048
rand_sets[74]: 1414
Assign rand_sets[75]: 1166  LLC: 2048
rand_sets[75]: 1166
Assign rand_sets[76]: 732  LLC: 2048
rand_sets[76]: 732
Assign rand_sets[77]: 297  LLC: 2048
rand_sets[77]: 297
Assign rand_sets[78]: 1133  LLC: 2048
rand_sets[78]: 1133
Assign rand_sets[79]: 846  LLC: 2048
rand_sets[79]: 846
Assign rand_sets[80]: 767  LLC: 2048
rand_sets[80]: 767
Assign rand_sets[81]: 1878  LLC: 2048
rand_sets[81]: 1878
Assign rand_sets[82]: 993  LLC: 2048
rand_sets[82]: 993
Assign rand_sets[83]: 1392  LLC: 2048
rand_sets[83]: 1392
Assign rand_sets[84]: 1568  LLC: 2048
rand_sets[84]: 1568
Assign rand_sets[85]: 1787  LLC: 2048
rand_sets[85]: 1787
Assign rand_sets[86]: 399  LLC: 2048
rand_sets[86]: 399
Assign rand_sets[87]: 1201  LLC: 2048
rand_sets[87]: 1201
Assign rand_sets[88]: 856  LLC: 2048
rand_sets[88]: 856
Assign rand_sets[89]: 773  LLC: 2048
rand_sets[89]: 773
Assign rand_sets[90]: 1680  LLC: 2048
rand_sets[90]: 1680
Assign rand_sets[91]: 1477  LLC: 2048
rand_sets[91]: 1477
Assign rand_sets[92]: 9  LLC: 2048
rand_sets[92]: 9
Assign rand_sets[93]: 1500  LLC: 2048
rand_sets[93]: 1500
Assign rand_sets[94]: 851  LLC: 2048
rand_sets[94]: 851
Assign rand_sets[95]: 973  LLC: 2048
rand_sets[95]: 973
Assign rand_sets[96]: 938  LLC: 2048
rand_sets[96]: 938
Assign rand_sets[97]: 1851  LLC: 2048
rand_sets[97]: 1851
Assign rand_sets[98]: 1608  LLC: 2048
rand_sets[98]: 1608
Assign rand_sets[99]: 1945  LLC: 2048
Assign rand_sets[99]: 1106  LLC: 2048
rand_sets[99]: 1106
Assign rand_sets[100]: 979  LLC: 2048
rand_sets[100]: 979
Assign rand_sets[101]: 338  LLC: 2048
rand_sets[101]: 338
Assign rand_sets[102]: 1693  LLC: 2048
rand_sets[102]: 1693
Assign rand_sets[103]: 6  LLC: 2048
rand_sets[103]: 6
Assign rand_sets[104]: 671  LLC: 2048
rand_sets[104]: 671
Assign rand_sets[105]: 490  LLC: 2048
rand_sets[105]: 490
Assign rand_sets[106]: 1461  LLC: 2048
rand_sets[106]: 1461
Assign rand_sets[107]: 1730  LLC: 2048
rand_sets[107]: 1730
Assign rand_sets[108]: 1030  LLC: 2048
rand_sets[108]: 1030
Assign rand_sets[109]: 19  LLC: 2048
rand_sets[109]: 19
Assign rand_sets[110]: 920  LLC: 2048
Assign rand_sets[110]: 329  LLC: 2048
rand_sets[110]: 329
Assign rand_sets[111]: 1714  LLC: 2048
rand_sets[111]: 1714
Assign rand_sets[112]: 1  LLC: 2048
rand_sets[112]: 1
Assign rand_sets[113]: 1822  LLC: 2048
rand_sets[113]: 1822
Assign rand_sets[114]: 172  LLC: 2048
rand_sets[114]: 172
Assign rand_sets[115]: 1586  LLC: 2048
rand_sets[115]: 1586
Assign rand_sets[116]: 648  LLC: 2048
rand_sets[116]: 648
Assign rand_sets[117]: 1329  LLC: 2048
rand_sets[117]: 1329
Assign rand_sets[118]: 668  LLC: 2048
rand_sets[118]: 668
Assign rand_sets[119]: 1874  LLC: 2048
rand_sets[119]: 1874
Assign rand_sets[120]: 70  LLC: 2048
rand_sets[120]: 70
Assign rand_sets[121]: 661  LLC: 2048
rand_sets[121]: 661
Assign rand_sets[122]: 1649  LLC: 2048
rand_sets[122]: 1649
Assign rand_sets[123]: 1590  LLC: 2048
rand_sets[123]: 1590
Assign rand_sets[124]: 911  LLC: 2048
rand_sets[124]: 911
Assign rand_sets[125]: 1367  LLC: 2048
rand_sets[125]: 1367
Assign rand_sets[126]: 1782  LLC: 2048
rand_sets[126]: 1782
Assign rand_sets[127]: 569  LLC: 2048
rand_sets[127]: 569
Heartbeat CPU 0 instructions: 10000003 cycles: 3242291 heartbeat IPC: 3.08424 cumulative IPC: 3.08424 (Simulation time: 0 hr 0 min 20 sec) 
Heartbeat CPU 0 instructions: 20000003 cycles: 6524211 heartbeat IPC: 3.047 cumulative IPC: 3.06551 (Simulation time: 0 hr 0 min 41 sec) 
Heartbeat CPU 0 instructions: 30000001 cycles: 9797644 heartbeat IPC: 3.0549 cumulative IPC: 3.06196 (Simulation time: 0 hr 1 min 1 sec) 
Heartbeat CPU 0 instructions: 40000000 cycles: 13049190 heartbeat IPC: 3.07546 cumulative IPC: 3.06532 (Simulation time: 0 hr 1 min 21 sec) 
Heartbeat CPU 0 instructions: 50000001 cycles: 16302392 heartbeat IPC: 3.07389 cumulative IPC: 3.06703 (Simulation time: 0 hr 1 min 41 sec) 
Heartbeat CPU 0 instructions: 60000000 cycles: 19551542 heartbeat IPC: 3.07773 cumulative IPC: 3.06881 (Simulation time: 0 hr 2 min 2 sec) 
Heartbeat CPU 0 instructions: 70000000 cycles: 22783537 heartbeat IPC: 3.09406 cumulative IPC: 3.07239 (Simulation time: 0 hr 2 min 22 sec) 
Heartbeat CPU 0 instructions: 80000001 cycles: 26035805 heartbeat IPC: 3.07478 cumulative IPC: 3.07269 (Simulation time: 0 hr 2 min 42 sec) 
Heartbeat CPU 0 instructions: 90000002 cycles: 29321413 heartbeat IPC: 3.04358 cumulative IPC: 3.06943 (Simulation time: 0 hr 3 min 2 sec) 
Heartbeat CPU 0 instructions: 100000003 cycles: 32601258 heartbeat IPC: 3.04892 cumulative IPC: 3.06737 (Simulation time: 0 hr 3 min 22 sec) 

Warmup complete CPU 0 instructions: 100000003 cycles: 32601258 (Simulation time: 0 hr 3 min 22 sec) 

Heartbeat CPU 0 instructions: 110000000 cycles: 42212901 heartbeat IPC: 1.0404 cumulative IPC: 1.0404 (Simulation time: 0 hr 3 min 35 sec) 
Heartbeat CPU 0 instructions: 120000000 cycles: 51173432 heartbeat IPC: 1.11601 cumulative IPC: 1.07688 (Simulation time: 0 hr 3 min 48 sec) 
Heartbeat CPU 0 instructions: 130000003 cycles: 59362246 heartbeat IPC: 1.22118 cumulative IPC: 1.12103 (Simulation time: 0 hr 4 min 0 sec) 
Heartbeat CPU 0 instructions: 140000001 cycles: 68410721 heartbeat IPC: 1.10516 cumulative IPC: 1.11702 (Simulation time: 0 hr 4 min 13 sec) 
Heartbeat CPU 0 instructions: 150000000 cycles: 76633848 heartbeat IPC: 1.21608 cumulative IPC: 1.13552 (Simulation time: 0 hr 4 min 25 sec) 
Heartbeat CPU 0 instructions: 160000000 cycles: 84640647 heartbeat IPC: 1.24894 cumulative IPC: 1.15297 (Simulation time: 0 hr 4 min 38 sec) 
Heartbeat CPU 0 instructions: 170000001 cycles: 94238709 heartbeat IPC: 1.04188 cumulative IPC: 1.13567 (Simulation time: 0 hr 4 min 51 sec) 
Heartbeat CPU 0 instructions: 180000001 cycles: 105579746 heartbeat IPC: 0.881754 cumulative IPC: 1.09621 (Simulation time: 0 hr 5 min 5 sec) 
Heartbeat CPU 0 instructions: 190000000 cycles: 118392120 heartbeat IPC: 0.780495 cumulative IPC: 1.04906 (Simulation time: 0 hr 5 min 20 sec) 
Heartbeat CPU 0 instructions: 200000000 cycles: 130276741 heartbeat IPC: 0.841424 cumulative IPC: 1.0238 (Simulation time: 0 hr 5 min 34 sec) 
Heartbeat CPU 0 instructions: 210000001 cycles: 141911145 heartbeat IPC: 0.85952 cumulative IPC: 1.00631 (Simulation time: 0 hr 5 min 49 sec) 
Heartbeat CPU 0 instructions: 220000000 cycles: 152531467 heartbeat IPC: 0.941591 cumulative IPC: 1.00058 (Simulation time: 0 hr 6 min 2 sec) 
Heartbeat CPU 0 instructions: 230000002 cycles: 162362011 heartbeat IPC: 1.01724 cumulative IPC: 1.00184 (Simulation time: 0 hr 6 min 16 sec) 
Heartbeat CPU 0 instructions: 240000001 cycles: 172112802 heartbeat IPC: 1.02556 cumulative IPC: 1.0035 (Simulation time: 0 hr 6 min 29 sec) 
Heartbeat CPU 0 instructions: 250000003 cycles: 181189235 heartbeat IPC: 1.10175 cumulative IPC: 1.0095 (Simulation time: 0 hr 6 min 43 sec) 
Heartbeat CPU 0 instructions: 260000002 cycles: 189592505 heartbeat IPC: 1.19001 cumulative IPC: 1.01917 (Simulation time: 0 hr 6 min 55 sec) 
Heartbeat CPU 0 instructions: 270000000 cycles: 197756402 heartbeat IPC: 1.22491 cumulative IPC: 1.02934 (Simulation time: 0 hr 7 min 7 sec) 
Heartbeat CPU 0 instructions: 280000000 cycles: 208991732 heartbeat IPC: 0.89005 cumulative IPC: 1.02046 (Simulation time: 0 hr 7 min 21 sec) 
Heartbeat CPU 0 instructions: 290000002 cycles: 218743147 heartbeat IPC: 1.02549 cumulative IPC: 1.02073 (Simulation time: 0 hr 7 min 34 sec) 
Heartbeat CPU 0 instructions: 300000002 cycles: 227681335 heartbeat IPC: 1.1188 cumulative IPC: 1.02522 (Simulation time: 0 hr 7 min 47 sec) 
Heartbeat CPU 0 instructions: 310000001 cycles: 236404181 heartbeat IPC: 1.14641 cumulative IPC: 1.03041 (Simulation time: 0 hr 8 min 0 sec) 
Heartbeat CPU 0 instructions: 320000003 cycles: 246101095 heartbeat IPC: 1.03126 cumulative IPC: 1.03045 (Simulation time: 0 hr 8 min 14 sec) 
Heartbeat CPU 0 instructions: 330000000 cycles: 254830862 heartbeat IPC: 1.14551 cumulative IPC: 1.03497 (Simulation time: 0 hr 8 min 27 sec) 
Heartbeat CPU 0 instructions: 340000003 cycles: 264891848 heartbeat IPC: 0.993939 cumulative IPC: 1.03319 (Simulation time: 0 hr 8 min 40 sec) 
Heartbeat CPU 0 instructions: 350000001 cycles: 275557213 heartbeat IPC: 0.937614 cumulative IPC: 1.02899 (Simulation time: 0 hr 8 min 53 sec) 
Heartbeat CPU 0 instructions: 360000000 cycles: 286341896 heartbeat IPC: 0.927241 cumulative IPC: 1.02467 (Simulation time: 0 hr 9 min 7 sec) 
Heartbeat CPU 0 instructions: 370000002 cycles: 296147978 heartbeat IPC: 1.01978 cumulative IPC: 1.02449 (Simulation time: 0 hr 9 min 21 sec) 
Heartbeat CPU 0 instructions: 380000003 cycles: 305498007 heartbeat IPC: 1.06952 cumulative IPC: 1.02603 (Simulation time: 0 hr 9 min 33 sec) 
Heartbeat CPU 0 instructions: 390000002 cycles: 316397478 heartbeat IPC: 0.917476 cumulative IPC: 1.02186 (Simulation time: 0 hr 9 min 47 sec) 
Heartbeat CPU 0 instructions: 400000000 cycles: 326830420 heartbeat IPC: 0.958502 cumulative IPC: 1.01961 (Simulation time: 0 hr 10 min 1 sec) 
Heartbeat CPU 0 instructions: 410000000 cycles: 337596420 heartbeat IPC: 0.92885 cumulative IPC: 1.01641 (Simulation time: 0 hr 10 min 15 sec) 
Heartbeat CPU 0 instructions: 420000000 cycles: 348628644 heartbeat IPC: 0.906436 cumulative IPC: 1.01257 (Simulation time: 0 hr 10 min 29 sec) 
Heartbeat CPU 0 instructions: 430000001 cycles: 358559884 heartbeat IPC: 1.00692 cumulative IPC: 1.0124 (Simulation time: 0 hr 10 min 43 sec) 
Heartbeat CPU 0 instructions: 440000000 cycles: 368438572 heartbeat IPC: 1.01228 cumulative IPC: 1.01239 (Simulation time: 0 hr 10 min 58 sec) 
Heartbeat CPU 0 instructions: 450000003 cycles: 378312833 heartbeat IPC: 1.01273 cumulative IPC: 1.0124 (Simulation time: 0 hr 11 min 12 sec) 
Heartbeat CPU 0 instructions: 460000003 cycles: 388002217 heartbeat IPC: 1.03206 cumulative IPC: 1.01294 (Simulation time: 0 hr 11 min 27 sec) 
Heartbeat CPU 0 instructions: 470000002 cycles: 397819985 heartbeat IPC: 1.01856 cumulative IPC: 1.01309 (Simulation time: 0 hr 11 min 40 sec) 
Heartbeat CPU 0 instructions: 480000001 cycles: 407010764 heartbeat IPC: 1.08805 cumulative IPC: 1.01493 (Simulation time: 0 hr 11 min 53 sec) 
Heartbeat CPU 0 instructions: 490000002 cycles: 415969282 heartbeat IPC: 1.11626 cumulative IPC: 1.0173 (Simulation time: 0 hr 12 min 6 sec) 
Heartbeat CPU 0 instructions: 500000002 cycles: 425510232 heartbeat IPC: 1.04811 cumulative IPC: 1.01805 (Simulation time: 0 hr 12 min 20 sec) 
Heartbeat CPU 0 instructions: 510000000 cycles: 438772391 heartbeat IPC: 0.754025 cumulative IPC: 1.00943 (Simulation time: 0 hr 12 min 38 sec) 
Heartbeat CPU 0 instructions: 520000002 cycles: 448589016 heartbeat IPC: 1.01868 cumulative IPC: 1.00965 (Simulation time: 0 hr 12 min 52 sec) 
Heartbeat CPU 0 instructions: 530000001 cycles: 458129679 heartbeat IPC: 1.04815 cumulative IPC: 1.01051 (Simulation time: 0 hr 13 min 5 sec) 
Heartbeat CPU 0 instructions: 540000000 cycles: 467373676 heartbeat IPC: 1.08178 cumulative IPC: 1.01202 (Simulation time: 0 hr 13 min 18 sec) 
Heartbeat CPU 0 instructions: 550000000 cycles: 479208895 heartbeat IPC: 0.844936 cumulative IPC: 1.0076 (Simulation time: 0 hr 13 min 33 sec) 
Heartbeat CPU 0 instructions: 560000002 cycles: 488847746 heartbeat IPC: 1.03747 cumulative IPC: 1.00823 (Simulation time: 0 hr 13 min 46 sec) 
Heartbeat CPU 0 instructions: 570000003 cycles: 498614316 heartbeat IPC: 1.0239 cumulative IPC: 1.00856 (Simulation time: 0 hr 14 min 0 sec) 
Heartbeat CPU 0 instructions: 580000002 cycles: 508214656 heartbeat IPC: 1.04163 cumulative IPC: 1.00922 (Simulation time: 0 hr 14 min 13 sec) 
Heartbeat CPU 0 instructions: 590000000 cycles: 517934625 heartbeat IPC: 1.02881 cumulative IPC: 1.00962 (Simulation time: 0 hr 14 min 26 sec) 
Heartbeat CPU 0 instructions: 600000002 cycles: 527878831 heartbeat IPC: 1.00561 cumulative IPC: 1.00953 (Simulation time: 0 hr 14 min 40 sec) 
Heartbeat CPU 0 instructions: 610000003 cycles: 537758832 heartbeat IPC: 1.01215 cumulative IPC: 1.00959 (Simulation time: 0 hr 14 min 53 sec) 
Heartbeat CPU 0 instructions: 620000000 cycles: 547096487 heartbeat IPC: 1.07093 cumulative IPC: 1.0107 (Simulation time: 0 hr 15 min 6 sec) 
Heartbeat CPU 0 instructions: 630000000 cycles: 556824227 heartbeat IPC: 1.02799 cumulative IPC: 1.01102 (Simulation time: 0 hr 15 min 20 sec) 
Heartbeat CPU 0 instructions: 640000003 cycles: 566636422 heartbeat IPC: 1.01914 cumulative IPC: 1.01117 (Simulation time: 0 hr 15 min 33 sec) 
Heartbeat CPU 0 instructions: 650000001 cycles: 575687050 heartbeat IPC: 1.1049 cumulative IPC: 1.01273 (Simulation time: 0 hr 15 min 46 sec) 
Heartbeat CPU 0 instructions: 660000000 cycles: 585518704 heartbeat IPC: 1.01712 cumulative IPC: 1.01281 (Simulation time: 0 hr 15 min 59 sec) 
Heartbeat CPU 0 instructions: 670000000 cycles: 595511947 heartbeat IPC: 1.00068 cumulative IPC: 1.01259 (Simulation time: 0 hr 16 min 12 sec) 
Heartbeat CPU 0 instructions: 680000003 cycles: 604676634 heartbeat IPC: 1.09115 cumulative IPC: 1.01385 (Simulation time: 0 hr 16 min 25 sec) 
Heartbeat CPU 0 instructions: 690000001 cycles: 615145370 heartbeat IPC: 0.955225 cumulative IPC: 1.0128 (Simulation time: 0 hr 16 min 39 sec) 
Heartbeat CPU 0 instructions: 700000001 cycles: 624653042 heartbeat IPC: 1.05178 cumulative IPC: 1.01342 (Simulation time: 0 hr 16 min 53 sec) 
Heartbeat CPU 0 instructions: 710000001 cycles: 634545761 heartbeat IPC: 1.01084 cumulative IPC: 1.01338 (Simulation time: 0 hr 17 min 7 sec) 
Heartbeat CPU 0 instructions: 720000001 cycles: 644356279 heartbeat IPC: 1.01931 cumulative IPC: 1.01348 (Simulation time: 0 hr 17 min 21 sec) 
Heartbeat CPU 0 instructions: 730000003 cycles: 653658588 heartbeat IPC: 1.075 cumulative IPC: 1.0144 (Simulation time: 0 hr 17 min 35 sec) 
Heartbeat CPU 0 instructions: 740000001 cycles: 663340110 heartbeat IPC: 1.0329 cumulative IPC: 1.01468 (Simulation time: 0 hr 17 min 49 sec) 
Heartbeat CPU 0 instructions: 750000000 cycles: 671711774 heartbeat IPC: 1.19451 cumulative IPC: 1.01704 (Simulation time: 0 hr 18 min 1 sec) 
Heartbeat CPU 0 instructions: 760000000 cycles: 679752709 heartbeat IPC: 1.24364 cumulative IPC: 1.01985 (Simulation time: 0 hr 18 min 14 sec) 
Heartbeat CPU 0 instructions: 770000000 cycles: 687843245 heartbeat IPC: 1.23601 cumulative IPC: 1.02252 (Simulation time: 0 hr 18 min 26 sec) 
Heartbeat CPU 0 instructions: 780000001 cycles: 695799508 heartbeat IPC: 1.25687 cumulative IPC: 1.02533 (Simulation time: 0 hr 18 min 38 sec) 
Heartbeat CPU 0 instructions: 790000000 cycles: 703892531 heartbeat IPC: 1.23563 cumulative IPC: 1.02787 (Simulation time: 0 hr 18 min 50 sec) 
Heartbeat CPU 0 instructions: 800000001 cycles: 711981232 heartbeat IPC: 1.23629 cumulative IPC: 1.03035 (Simulation time: 0 hr 19 min 3 sec) 
Heartbeat CPU 0 instructions: 810000000 cycles: 720084997 heartbeat IPC: 1.23399 cumulative IPC: 1.03275 (Simulation time: 0 hr 19 min 15 sec) 
Heartbeat CPU 0 instructions: 820000001 cycles: 728099909 heartbeat IPC: 1.24767 cumulative IPC: 1.03523 (Simulation time: 0 hr 19 min 27 sec) 
Heartbeat CPU 0 instructions: 830000000 cycles: 736388568 heartbeat IPC: 1.20647 cumulative IPC: 1.03725 (Simulation time: 0 hr 19 min 40 sec) 
Heartbeat CPU 0 instructions: 840000002 cycles: 744344163 heartbeat IPC: 1.25698 cumulative IPC: 1.0397 (Simulation time: 0 hr 19 min 52 sec) 
Heartbeat CPU 0 instructions: 850000003 cycles: 752560236 heartbeat IPC: 1.21713 cumulative IPC: 1.04173 (Simulation time: 0 hr 20 min 4 sec) 
Heartbeat CPU 0 instructions: 860000003 cycles: 760636196 heartbeat IPC: 1.23824 cumulative IPC: 1.04391 (Simulation time: 0 hr 20 min 16 sec) 
Heartbeat CPU 0 instructions: 870000002 cycles: 768808311 heartbeat IPC: 1.22367 cumulative IPC: 1.0459 (Simulation time: 0 hr 20 min 29 sec) 
Heartbeat CPU 0 instructions: 880000000 cycles: 776838252 heartbeat IPC: 1.24534 cumulative IPC: 1.04805 (Simulation time: 0 hr 20 min 41 sec) 
Heartbeat CPU 0 instructions: 890000003 cycles: 784846979 heartbeat IPC: 1.24864 cumulative IPC: 1.05019 (Simulation time: 0 hr 20 min 53 sec) 
Heartbeat CPU 0 instructions: 900000000 cycles: 792971481 heartbeat IPC: 1.23084 cumulative IPC: 1.05212 (Simulation time: 0 hr 21 min 5 sec) 
Heartbeat CPU 0 instructions: 910000002 cycles: 801096420 heartbeat IPC: 1.23078 cumulative IPC: 1.05401 (Simulation time: 0 hr 21 min 17 sec) 
Heartbeat CPU 0 instructions: 920000001 cycles: 809251330 heartbeat IPC: 1.22625 cumulative IPC: 1.05582 (Simulation time: 0 hr 21 min 30 sec) 
Heartbeat CPU 0 instructions: 930000001 cycles: 818664885 heartbeat IPC: 1.0623 cumulative IPC: 1.05589 (Simulation time: 0 hr 21 min 43 sec) 
Heartbeat CPU 0 instructions: 940000000 cycles: 828796274 heartbeat IPC: 0.987031 cumulative IPC: 1.05502 (Simulation time: 0 hr 21 min 56 sec) 
Heartbeat CPU 0 instructions: 950000000 cycles: 839881445 heartbeat IPC: 0.902106 cumulative IPC: 1.05292 (Simulation time: 0 hr 22 min 10 sec) 
Heartbeat CPU 0 instructions: 960000002 cycles: 848512544 heartbeat IPC: 1.1586 cumulative IPC: 1.05404 (Simulation time: 0 hr 22 min 23 sec) 
Heartbeat CPU 0 instructions: 970000002 cycles: 857849725 heartbeat IPC: 1.07099 cumulative IPC: 1.05423 (Simulation time: 0 hr 22 min 36 sec) 
Heartbeat CPU 0 instructions: 980000000 cycles: 869672707 heartbeat IPC: 0.84581 cumulative IPC: 1.05128 (Simulation time: 0 hr 22 min 50 sec) 
Heartbeat CPU 0 instructions: 990000000 cycles: 881820781 heartbeat IPC: 0.823176 cumulative IPC: 1.04802 (Simulation time: 0 hr 23 min 5 sec) 
Heartbeat CPU 0 instructions: 1000000002 cycles: 891929710 heartbeat IPC: 0.989225 cumulative IPC: 1.04733 (Simulation time: 0 hr 23 min 18 sec) 
Heartbeat CPU 0 instructions: 1010000003 cycles: 901325989 heartbeat IPC: 1.06425 cumulative IPC: 1.04751 (Simulation time: 0 hr 23 min 31 sec) 
Heartbeat CPU 0 instructions: 1020000000 cycles: 914030153 heartbeat IPC: 0.787143 cumulative IPC: 1.04376 (Simulation time: 0 hr 23 min 46 sec) 
Heartbeat CPU 0 instructions: 1030000002 cycles: 927965226 heartbeat IPC: 0.717614 cumulative IPC: 1.03868 (Simulation time: 0 hr 24 min 2 sec) 
Heartbeat CPU 0 instructions: 1040000003 cycles: 942895045 heartbeat IPC: 0.669801 cumulative IPC: 1.03263 (Simulation time: 0 hr 24 min 17 sec) 
Heartbeat CPU 0 instructions: 1050000000 cycles: 956680744 heartbeat IPC: 0.725389 cumulative IPC: 1.02805 (Simulation time: 0 hr 24 min 32 sec) 
Heartbeat CPU 0 instructions: 1060000002 cycles: 968538918 heartbeat IPC: 0.8433 cumulative IPC: 1.02571 (Simulation time: 0 hr 24 min 47 sec) 
Heartbeat CPU 0 instructions: 1070000001 cycles: 977758292 heartbeat IPC: 1.08467 cumulative IPC: 1.02628 (Simulation time: 0 hr 25 min 0 sec) 
Heartbeat CPU 0 instructions: 1080000002 cycles: 986353510 heartbeat IPC: 1.16344 cumulative IPC: 1.02752 (Simulation time: 0 hr 25 min 12 sec) 
Heartbeat CPU 0 instructions: 1090000001 cycles: 997770339 heartbeat IPC: 0.8759 cumulative IPC: 1.02573 (Simulation time: 0 hr 25 min 27 sec) 
Heartbeat CPU 0 instructions: 1100000000 cycles: 1008913008 heartbeat IPC: 0.897451 cumulative IPC: 1.02426 (Simulation time: 0 hr 25 min 41 sec) 
Finished CPU 0 instructions: 1000000002 cycles: 976311760 cumulative IPC: 1.02426 (Simulation time: 0 hr 25 min 41 sec) 

ChampSim completed all CPUs

Region of Interest Statistics

CPU 0 cumulative IPC: 1.02426 instructions: 1000000002 cycles: 976311760
L1D TOTAL     ACCESS:  244400984  HIT:  238118243  MISS:    6282741
L1D LOAD      ACCESS:  180930278  HIT:  176310152  MISS:    4620126
L1D RFO       ACCESS:   63470706  HIT:   61808091  MISS:    1662615
L1D PREFETCH  ACCESS:          0  HIT:          0  MISS:          0
L1D WRITEBACK ACCESS:          0  HIT:          0  MISS:          0
L1D PREFETCH  REQUESTED:          0  ISSUED:          0  USEFUL:          0  USELESS:          0
L1D AVERAGE MISS LATENCY: 64.5021 cycles
L1I TOTAL     ACCESS:  165099484  HIT:  165096194  MISS:       3290
L1I LOAD      ACCESS:  165099484  HIT:  165096194  MISS:       3290
L1I RFO       ACCESS:          0  HIT:          0  MISS:          0
L1I PREFETCH  ACCESS:          0  HIT:          0  MISS:          0
L1I WRITEBACK ACCESS:          0  HIT:          0  MISS:          0
L1I PREFETCH  REQUESTED:          0  ISSUED:          0  USEFUL:          0  USELESS:          0
L1I AVERAGE MISS LATENCY: 55.5316 cycles
L2C TOTAL     ACCESS:   10935786  HIT:    8667828  MISS:    2267958
L2C LOAD      ACCESS:    4623263  HIT:    2864153  MISS:    1759110
L2C RFO       ACCESS:    1661414  HIT:    1160752  MISS:     500662
L2C PREFETCH  ACCESS:          0  HIT:          0  MISS:          0
L2C WRITEBACK ACCESS:    4651109  HIT:    4642923  MISS:       8186
L2C PREFETCH  REQUESTED:          0  ISSUED:          0  USEFUL:          0  USELESS:          0
L2C AVERAGE MISS LATENCY: 142.396 cycles
LLC TOTAL     ACCESS:    3831516  HIT:    2499302  MISS:    1332214
LLC LOAD      ACCESS:    1759105  HIT:    1022226  MISS:     736879
LLC RFO       ACCESS:     500658  HIT:     128031  MISS:     372627
LLC PREFETCH  ACCESS:          0  HIT:          0  MISS:          0
LLC WRITEBACK ACCESS:    1571753  HIT:    1349045  MISS:     222708
LLC PREFETCH  REQUESTED:          0  ISSUED:          0  USEFUL:          0  USELESS:          0
LLC AVERAGE MISS LATENCY: 172.024 cycles
Major fault: 0 Minor fault: 11705

DRAM Statistics
 CHANNEL 0
 RQ ROW_BUFFER_HIT:      98245  ROW_BUFFER_MISS:    1011258
 DBUS_CONGESTED:     223460
 WQ ROW_BUFFER_HIT:     108607  ROW_BUFFER_MISS:     726679  FULL:      10163

 AVG_CONGESTED_CYCLE: 6

CPU 0 Branch Prediction Accuracy: 92.6995% MPKI: 10.9797 Average ROB Occupancy at Mispredict: 18.5555

Branch types
NOT_BRANCH: 849602978 84.9603%
BRANCH_DIRECT_JUMP: 6669032 0.666903%
BRANCH_INDIRECT: 1417678 0.141768%
BRANCH_CONDITIONAL: 140970714 14.0971%
BRANCH_DIRECT_CALL: 442832 0.0442832%
BRANCH_INDIRECT_CALL: 226828 0.0226828%
BRANCH_RETURN: 669661 0.0669661%
BRANCH_OTHER: 0 0%

