
*** ChampSim Multicore Out-of-Order Simulator ***

Warmup Instructions: 100000000
Simulation Instructions: 1000000000
Number of CPUs: 1
LLC sets: 2048
LLC ways: 16
Off-chip DRAM Size: 4096 MB Channels: 1 Width: 64-bit Data Rate: 3200 MT/s

CPU 0 runs /scratch/user/kevin.weston/dpc3-traces/657.champsimtrace.xz
CPU 0 Bimodal branch predictor
Per-line RRPV Initialized
PRRIP State Initialized
Assign SAMPLER_SET[0]: 454  LLC: 2048
SAMPLER_SET[0]: 454
Assign SAMPLER_SET[1]: 1662  LLC: 2048
SAMPLER_SET[1]: 1662
Assign SAMPLER_SET[2]: 1921  LLC: 2048
SAMPLER_SET[2]: 1921
Assign SAMPLER_SET[3]: 1131  LLC: 2048
SAMPLER_SET[3]: 1131
Assign SAMPLER_SET[4]: 331  LLC: 2048
SAMPLER_SET[4]: 331
Assign SAMPLER_SET[5]: 1531  LLC: 2048
SAMPLER_SET[5]: 1531
Assign SAMPLER_SET[6]: 482  LLC: 2048
SAMPLER_SET[6]: 482
Assign SAMPLER_SET[7]: 1275  LLC: 2048
SAMPLER_SET[7]: 1275
Assign SAMPLER_SET[8]: 1876  LLC: 2048
SAMPLER_SET[8]: 1876
Assign SAMPLER_SET[9]: 2038  LLC: 2048
SAMPLER_SET[9]: 2038
Assign SAMPLER_SET[10]: 701  LLC: 2048
SAMPLER_SET[10]: 701
Assign SAMPLER_SET[11]: 479  LLC: 2048
SAMPLER_SET[11]: 479
Assign SAMPLER_SET[12]: 892  LLC: 2048
SAMPLER_SET[12]: 892
Assign SAMPLER_SET[13]: 1820  LLC: 2048
SAMPLER_SET[13]: 1820
Assign SAMPLER_SET[14]: 1505  LLC: 2048
SAMPLER_SET[14]: 1505
Assign SAMPLER_SET[15]: 1159  LLC: 2048
SAMPLER_SET[15]: 1159
Assign SAMPLER_SET[16]: 513  LLC: 2048
SAMPLER_SET[16]: 513
Assign SAMPLER_SET[17]: 703  LLC: 2048
SAMPLER_SET[17]: 703
Assign SAMPLER_SET[18]: 561  LLC: 2048
SAMPLER_SET[18]: 561
Assign SAMPLER_SET[19]: 990  LLC: 2048
SAMPLER_SET[19]: 990
Assign SAMPLER_SET[20]: 342  LLC: 2048
SAMPLER_SET[20]: 342
Assign SAMPLER_SET[21]: 882  LLC: 2048
SAMPLER_SET[21]: 882
Assign SAMPLER_SET[22]: 15  LLC: 2048
SAMPLER_SET[22]: 15
Assign SAMPLER_SET[23]: 71  LLC: 2048
SAMPLER_SET[23]: 71
Assign SAMPLER_SET[24]: 1127  LLC: 2048
SAMPLER_SET[24]: 1127
Assign SAMPLER_SET[25]: 1382  LLC: 2048
SAMPLER_SET[25]: 1382
Assign SAMPLER_SET[26]: 647  LLC: 2048
SAMPLER_SET[26]: 647
Assign SAMPLER_SET[27]: 857  LLC: 2048
SAMPLER_SET[27]: 857
Assign SAMPLER_SET[28]: 1450  LLC: 2048
SAMPLER_SET[28]: 1450
Assign SAMPLER_SET[29]: 1160  LLC: 2048
SAMPLER_SET[29]: 1160
Assign SAMPLER_SET[30]: 1852  LLC: 2048
SAMPLER_SET[30]: 1852
Assign SAMPLER_SET[31]: 1881  LLC: 2048
SAMPLER_SET[31]: 1881
Assign SAMPLER_SET[32]: 1770  LLC: 2048
SAMPLER_SET[32]: 1770
Assign SAMPLER_SET[33]: 1622  LLC: 2048
SAMPLER_SET[33]: 1622
Assign SAMPLER_SET[34]: 275  LLC: 2048
SAMPLER_SET[34]: 275
Assign SAMPLER_SET[35]: 635  LLC: 2048
SAMPLER_SET[35]: 635
Assign SAMPLER_SET[36]: 466  LLC: 2048
SAMPLER_SET[36]: 466
Assign SAMPLER_SET[37]: 1413  LLC: 2048
SAMPLER_SET[37]: 1413
Assign SAMPLER_SET[38]: 417  LLC: 2048
SAMPLER_SET[38]: 417
Assign SAMPLER_SET[39]: 472  LLC: 2048
SAMPLER_SET[39]: 472
Assign SAMPLER_SET[40]: 1340  LLC: 2048
SAMPLER_SET[40]: 1340
Assign SAMPLER_SET[41]: 852  LLC: 2048
SAMPLER_SET[41]: 852
Assign SAMPLER_SET[42]: 1365  LLC: 2048
SAMPLER_SET[42]: 1365
Assign SAMPLER_SET[43]: 47  LLC: 2048
SAMPLER_SET[43]: 47
Assign SAMPLER_SET[44]: 823  LLC: 2048
SAMPLER_SET[44]: 823
Assign SAMPLER_SET[45]: 686  LLC: 2048
SAMPLER_SET[45]: 686
Assign SAMPLER_SET[46]: 1637  LLC: 2048
SAMPLER_SET[46]: 1637
Assign SAMPLER_SET[47]: 1115  LLC: 2048
SAMPLER_SET[47]: 1115
Assign SAMPLER_SET[48]: 986  LLC: 2048
SAMPLER_SET[48]: 986
Assign SAMPLER_SET[49]: 258  LLC: 2048
SAMPLER_SET[49]: 258
Assign SAMPLER_SET[50]: 633  LLC: 2048
SAMPLER_SET[50]: 633
Assign SAMPLER_SET[51]: 920  LLC: 2048
SAMPLER_SET[51]: 920
Assign SAMPLER_SET[52]: 204  LLC: 2048
SAMPLER_SET[52]: 204
Assign SAMPLER_SET[53]: 227  LLC: 2048
SAMPLER_SET[53]: 227
Assign SAMPLER_SET[54]: 1818  LLC: 2048
SAMPLER_SET[54]: 1818
Assign SAMPLER_SET[55]: 886  LLC: 2048
SAMPLER_SET[55]: 886
Assign SAMPLER_SET[56]: 1422  LLC: 2048
SAMPLER_SET[56]: 1422
Assign SAMPLER_SET[57]: 607  LLC: 2048
SAMPLER_SET[57]: 607
Assign SAMPLER_SET[58]: 217  LLC: 2048
SAMPLER_SET[58]: 217
Assign SAMPLER_SET[59]: 1945  LLC: 2048
SAMPLER_SET[59]: 1945
Assign SAMPLER_SET[60]: 143  LLC: 2048
SAMPLER_SET[60]: 143
Assign SAMPLER_SET[61]: 1311  LLC: 2048
SAMPLER_SET[61]: 1311
Assign SAMPLER_SET[62]: 319  LLC: 2048
SAMPLER_SET[62]: 319
Assign SAMPLER_SET[63]: 1846  LLC: 2048
SAMPLER_SET[63]: 1846
Assign SAMPLER_SET[64]: 238  LLC: 2048
SAMPLER_SET[64]: 238
Assign SAMPLER_SET[65]: 67  LLC: 2048
SAMPLER_SET[65]: 67
Assign SAMPLER_SET[66]: 1912  LLC: 2048
SAMPLER_SET[66]: 1912
Assign SAMPLER_SET[67]: 1613  LLC: 2048
SAMPLER_SET[67]: 1613
Assign SAMPLER_SET[68]: 1293  LLC: 2048
SAMPLER_SET[68]: 1293
Assign SAMPLER_SET[69]: 1018  LLC: 2048
SAMPLER_SET[69]: 1018
Assign SAMPLER_SET[70]: 1982  LLC: 2048
SAMPLER_SET[70]: 1982
Assign SAMPLER_SET[71]: 1702  LLC: 2048
SAMPLER_SET[71]: 1702
Assign SAMPLER_SET[72]: 1498  LLC: 2048
SAMPLER_SET[72]: 1498
Assign SAMPLER_SET[73]: 228  LLC: 2048
SAMPLER_SET[73]: 228
Assign SAMPLER_SET[74]: 1414  LLC: 2048
SAMPLER_SET[74]: 1414
Assign SAMPLER_SET[75]: 1166  LLC: 2048
SAMPLER_SET[75]: 1166
Assign SAMPLER_SET[76]: 732  LLC: 2048
SAMPLER_SET[76]: 732
Assign SAMPLER_SET[77]: 297  LLC: 2048
SAMPLER_SET[77]: 297
Assign SAMPLER_SET[78]: 1133  LLC: 2048
SAMPLER_SET[78]: 1133
Assign SAMPLER_SET[79]: 846  LLC: 2048
SAMPLER_SET[79]: 846
Assign SAMPLER_SET[80]: 767  LLC: 2048
SAMPLER_SET[80]: 767
Assign SAMPLER_SET[81]: 1878  LLC: 2048
SAMPLER_SET[81]: 1878
Assign SAMPLER_SET[82]: 993  LLC: 2048
SAMPLER_SET[82]: 993
Assign SAMPLER_SET[83]: 1392  LLC: 2048
SAMPLER_SET[83]: 1392
Assign SAMPLER_SET[84]: 1568  LLC: 2048
SAMPLER_SET[84]: 1568
Assign SAMPLER_SET[85]: 1787  LLC: 2048
SAMPLER_SET[85]: 1787
Assign SAMPLER_SET[86]: 399  LLC: 2048
SAMPLER_SET[86]: 399
Assign SAMPLER_SET[87]: 1201  LLC: 2048
SAMPLER_SET[87]: 1201
Assign SAMPLER_SET[88]: 856  LLC: 2048
SAMPLER_SET[88]: 856
Assign SAMPLER_SET[89]: 773  LLC: 2048
SAMPLER_SET[89]: 773
Assign SAMPLER_SET[90]: 1680  LLC: 2048
SAMPLER_SET[90]: 1680
Assign SAMPLER_SET[91]: 1477  LLC: 2048
SAMPLER_SET[91]: 1477
Assign SAMPLER_SET[92]: 9  LLC: 2048
SAMPLER_SET[92]: 9
Assign SAMPLER_SET[93]: 1500  LLC: 2048
SAMPLER_SET[93]: 1500
Assign SAMPLER_SET[94]: 851  LLC: 2048
SAMPLER_SET[94]: 851
Assign SAMPLER_SET[95]: 973  LLC: 2048
SAMPLER_SET[95]: 973
Assign SAMPLER_SET[96]: 938  LLC: 2048
SAMPLER_SET[96]: 938
Assign SAMPLER_SET[97]: 1851  LLC: 2048
SAMPLER_SET[97]: 1851
Assign SAMPLER_SET[98]: 1608  LLC: 2048
SAMPLER_SET[98]: 1608
Assign SAMPLER_SET[99]: 1945  LLC: 2048
Assign SAMPLER_SET[99]: 1106  LLC: 2048
SAMPLER_SET[99]: 1106
Assign SAMPLER_SET[100]: 979  LLC: 2048
SAMPLER_SET[100]: 979
Assign SAMPLER_SET[101]: 338  LLC: 2048
SAMPLER_SET[101]: 338
Assign SAMPLER_SET[102]: 1693  LLC: 2048
SAMPLER_SET[102]: 1693
Assign SAMPLER_SET[103]: 6  LLC: 2048
SAMPLER_SET[103]: 6
Assign SAMPLER_SET[104]: 671  LLC: 2048
SAMPLER_SET[104]: 671
Assign SAMPLER_SET[105]: 490  LLC: 2048
SAMPLER_SET[105]: 490
Assign SAMPLER_SET[106]: 1461  LLC: 2048
SAMPLER_SET[106]: 1461
Assign SAMPLER_SET[107]: 1730  LLC: 2048
SAMPLER_SET[107]: 1730
Assign SAMPLER_SET[108]: 1030  LLC: 2048
SAMPLER_SET[108]: 1030
Assign SAMPLER_SET[109]: 19  LLC: 2048
SAMPLER_SET[109]: 19
Assign SAMPLER_SET[110]: 920  LLC: 2048
Assign SAMPLER_SET[110]: 329  LLC: 2048
SAMPLER_SET[110]: 329
Assign SAMPLER_SET[111]: 1714  LLC: 2048
SAMPLER_SET[111]: 1714
Assign SAMPLER_SET[112]: 1  LLC: 2048
SAMPLER_SET[112]: 1
Assign SAMPLER_SET[113]: 1822  LLC: 2048
SAMPLER_SET[113]: 1822
Assign SAMPLER_SET[114]: 172  LLC: 2048
SAMPLER_SET[114]: 172
Assign SAMPLER_SET[115]: 1586  LLC: 2048
SAMPLER_SET[115]: 1586
Assign SAMPLER_SET[116]: 648  LLC: 2048
SAMPLER_SET[116]: 648
Assign SAMPLER_SET[117]: 1329  LLC: 2048
SAMPLER_SET[117]: 1329
Assign SAMPLER_SET[118]: 668  LLC: 2048
SAMPLER_SET[118]: 668
Assign SAMPLER_SET[119]: 1874  LLC: 2048
SAMPLER_SET[119]: 1874
Assign SAMPLER_SET[120]: 70  LLC: 2048
SAMPLER_SET[120]: 70
Assign SAMPLER_SET[121]: 661  LLC: 2048
SAMPLER_SET[121]: 661
Assign SAMPLER_SET[122]: 1649  LLC: 2048
SAMPLER_SET[122]: 1649
Assign SAMPLER_SET[123]: 1590  LLC: 2048
SAMPLER_SET[123]: 1590
Assign SAMPLER_SET[124]: 911  LLC: 2048
SAMPLER_SET[124]: 911
Assign SAMPLER_SET[125]: 1367  LLC: 2048
SAMPLER_SET[125]: 1367
Assign SAMPLER_SET[126]: 1782  LLC: 2048
SAMPLER_SET[126]: 1782
Assign SAMPLER_SET[127]: 569  LLC: 2048
SAMPLER_SET[127]: 569
Heartbeat CPU 0 instructions: 10000003 cycles: 3242269 heartbeat IPC: 3.08426 cumulative IPC: 3.08426 (Simulation time: 0 hr 0 min 21 sec) 
Heartbeat CPU 0 instructions: 20000003 cycles: 6524198 heartbeat IPC: 3.04699 cumulative IPC: 3.06551 (Simulation time: 0 hr 0 min 42 sec) 
Heartbeat CPU 0 instructions: 30000001 cycles: 9797655 heartbeat IPC: 3.05487 cumulative IPC: 3.06196 (Simulation time: 0 hr 1 min 3 sec) 
Heartbeat CPU 0 instructions: 40000000 cycles: 13049275 heartbeat IPC: 3.07539 cumulative IPC: 3.0653 (Simulation time: 0 hr 1 min 24 sec) 
Heartbeat CPU 0 instructions: 50000001 cycles: 16302499 heartbeat IPC: 3.07387 cumulative IPC: 3.06701 (Simulation time: 0 hr 1 min 45 sec) 
Heartbeat CPU 0 instructions: 60000000 cycles: 19551719 heartbeat IPC: 3.07766 cumulative IPC: 3.06878 (Simulation time: 0 hr 2 min 6 sec) 
Heartbeat CPU 0 instructions: 70000000 cycles: 22783761 heartbeat IPC: 3.09402 cumulative IPC: 3.07236 (Simulation time: 0 hr 2 min 26 sec) 
Heartbeat CPU 0 instructions: 80000001 cycles: 26036057 heartbeat IPC: 3.07475 cumulative IPC: 3.07266 (Simulation time: 0 hr 2 min 47 sec) 
Heartbeat CPU 0 instructions: 90000002 cycles: 29321626 heartbeat IPC: 3.04361 cumulative IPC: 3.06941 (Simulation time: 0 hr 3 min 8 sec) 
Heartbeat CPU 0 instructions: 100000003 cycles: 32601495 heartbeat IPC: 3.0489 cumulative IPC: 3.06734 (Simulation time: 0 hr 3 min 29 sec) 

Warmup complete CPU 0 instructions: 100000003 cycles: 32601495 (Simulation time: 0 hr 3 min 29 sec) 

Heartbeat CPU 0 instructions: 110000000 cycles: 42326482 heartbeat IPC: 1.02828 cumulative IPC: 1.02828 (Simulation time: 0 hr 3 min 42 sec) 
Heartbeat CPU 0 instructions: 120000000 cycles: 51405867 heartbeat IPC: 1.1014 cumulative IPC: 1.06358 (Simulation time: 0 hr 3 min 55 sec) 
Heartbeat CPU 0 instructions: 130000003 cycles: 59673323 heartbeat IPC: 1.20956 cumulative IPC: 1.10816 (Simulation time: 0 hr 4 min 8 sec) 
Heartbeat CPU 0 instructions: 140000001 cycles: 68785016 heartbeat IPC: 1.09749 cumulative IPC: 1.10548 (Simulation time: 0 hr 4 min 21 sec) 
Heartbeat CPU 0 instructions: 150000000 cycles: 77039684 heartbeat IPC: 1.21144 cumulative IPC: 1.12516 (Simulation time: 0 hr 4 min 34 sec) 
Heartbeat CPU 0 instructions: 160000000 cycles: 85100586 heartbeat IPC: 1.24056 cumulative IPC: 1.14288 (Simulation time: 0 hr 4 min 46 sec) 
Heartbeat CPU 0 instructions: 170000001 cycles: 94738781 heartbeat IPC: 1.03754 cumulative IPC: 1.12654 (Simulation time: 0 hr 4 min 59 sec) 
Heartbeat CPU 0 instructions: 180000001 cycles: 106230301 heartbeat IPC: 0.870207 cumulative IPC: 1.08653 (Simulation time: 0 hr 5 min 13 sec) 
Heartbeat CPU 0 instructions: 190000000 cycles: 119358487 heartbeat IPC: 0.76172 cumulative IPC: 1.03738 (Simulation time: 0 hr 5 min 29 sec) 
Heartbeat CPU 0 instructions: 200000000 cycles: 131574323 heartbeat IPC: 0.81861 cumulative IPC: 1.01038 (Simulation time: 0 hr 5 min 44 sec) 
Heartbeat CPU 0 instructions: 210000001 cycles: 143570648 heartbeat IPC: 0.833589 cumulative IPC: 0.991266 (Simulation time: 0 hr 5 min 58 sec) 
Heartbeat CPU 0 instructions: 220000000 cycles: 154355253 heartbeat IPC: 0.927248 cumulative IPC: 0.985596 (Simulation time: 0 hr 6 min 12 sec) 
Heartbeat CPU 0 instructions: 230000002 cycles: 164322837 heartbeat IPC: 1.00325 cumulative IPC: 0.986932 (Simulation time: 0 hr 6 min 25 sec) 
Heartbeat CPU 0 instructions: 240000001 cycles: 174221450 heartbeat IPC: 1.01024 cumulative IPC: 0.988561 (Simulation time: 0 hr 6 min 39 sec) 
Heartbeat CPU 0 instructions: 250000003 cycles: 183441717 heartbeat IPC: 1.08457 cumulative IPC: 0.99443 (Simulation time: 0 hr 6 min 53 sec) 
Heartbeat CPU 0 instructions: 260000002 cycles: 192026770 heartbeat IPC: 1.16482 cumulative IPC: 1.00361 (Simulation time: 0 hr 7 min 6 sec) 
Heartbeat CPU 0 instructions: 270000000 cycles: 200312858 heartbeat IPC: 1.20684 cumulative IPC: 1.01365 (Simulation time: 0 hr 7 min 18 sec) 
Heartbeat CPU 0 instructions: 280000000 cycles: 211512443 heartbeat IPC: 0.89289 cumulative IPC: 1.00609 (Simulation time: 0 hr 7 min 32 sec) 
Heartbeat CPU 0 instructions: 290000002 cycles: 221352801 heartbeat IPC: 1.01622 cumulative IPC: 1.00662 (Simulation time: 0 hr 7 min 45 sec) 
Heartbeat CPU 0 instructions: 300000002 cycles: 230341468 heartbeat IPC: 1.11251 cumulative IPC: 1.01143 (Simulation time: 0 hr 7 min 58 sec) 
Heartbeat CPU 0 instructions: 310000001 cycles: 239172518 heartbeat IPC: 1.13237 cumulative IPC: 1.0166 (Simulation time: 0 hr 8 min 12 sec) 
Heartbeat CPU 0 instructions: 320000003 cycles: 249030434 heartbeat IPC: 1.01441 cumulative IPC: 1.0165 (Simulation time: 0 hr 8 min 26 sec) 
Heartbeat CPU 0 instructions: 330000000 cycles: 257808757 heartbeat IPC: 1.13917 cumulative IPC: 1.02128 (Simulation time: 0 hr 8 min 39 sec) 
Heartbeat CPU 0 instructions: 340000003 cycles: 267973253 heartbeat IPC: 0.983817 cumulative IPC: 1.01966 (Simulation time: 0 hr 8 min 52 sec) 
Heartbeat CPU 0 instructions: 350000001 cycles: 278828689 heartbeat IPC: 0.921197 cumulative IPC: 1.01532 (Simulation time: 0 hr 9 min 6 sec) 
Heartbeat CPU 0 instructions: 360000000 cycles: 289838283 heartbeat IPC: 0.908299 cumulative IPC: 1.01074 (Simulation time: 0 hr 9 min 20 sec) 
Heartbeat CPU 0 instructions: 370000002 cycles: 299819973 heartbeat IPC: 1.00183 cumulative IPC: 1.01041 (Simulation time: 0 hr 9 min 33 sec) 
Heartbeat CPU 0 instructions: 380000003 cycles: 309325615 heartbeat IPC: 1.05201 cumulative IPC: 1.01184 (Simulation time: 0 hr 9 min 46 sec) 
Heartbeat CPU 0 instructions: 390000002 cycles: 320366729 heartbeat IPC: 0.905706 cumulative IPC: 1.00777 (Simulation time: 0 hr 10 min 0 sec) 
Heartbeat CPU 0 instructions: 400000000 cycles: 330946571 heartbeat IPC: 0.945194 cumulative IPC: 1.00555 (Simulation time: 0 hr 10 min 14 sec) 
Heartbeat CPU 0 instructions: 410000000 cycles: 341873372 heartbeat IPC: 0.915181 cumulative IPC: 1.00235 (Simulation time: 0 hr 10 min 28 sec) 
Heartbeat CPU 0 instructions: 420000000 cycles: 353033297 heartbeat IPC: 0.896063 cumulative IPC: 0.998652 (Simulation time: 0 hr 10 min 42 sec) 
Heartbeat CPU 0 instructions: 430000001 cycles: 363033238 heartbeat IPC: 1.00001 cumulative IPC: 0.998693 (Simulation time: 0 hr 10 min 57 sec) 
Heartbeat CPU 0 instructions: 440000000 cycles: 373097401 heartbeat IPC: 0.993625 cumulative IPC: 0.998544 (Simulation time: 0 hr 11 min 11 sec) 
Heartbeat CPU 0 instructions: 450000003 cycles: 383185655 heartbeat IPC: 0.991252 cumulative IPC: 0.998334 (Simulation time: 0 hr 11 min 26 sec) 
Heartbeat CPU 0 instructions: 460000003 cycles: 393060836 heartbeat IPC: 1.01264 cumulative IPC: 0.998726 (Simulation time: 0 hr 11 min 41 sec) 
Heartbeat CPU 0 instructions: 470000002 cycles: 402933920 heartbeat IPC: 1.01285 cumulative IPC: 0.999102 (Simulation time: 0 hr 11 min 54 sec) 
Heartbeat CPU 0 instructions: 480000001 cycles: 412229220 heartbeat IPC: 1.07581 cumulative IPC: 1.00098 (Simulation time: 0 hr 12 min 7 sec) 
Heartbeat CPU 0 instructions: 490000002 cycles: 421306580 heartbeat IPC: 1.10164 cumulative IPC: 1.00333 (Simulation time: 0 hr 12 min 20 sec) 
Heartbeat CPU 0 instructions: 500000002 cycles: 430974111 heartbeat IPC: 1.03439 cumulative IPC: 1.00409 (Simulation time: 0 hr 12 min 34 sec) 
Heartbeat CPU 0 instructions: 510000000 cycles: 444103991 heartbeat IPC: 0.761621 cumulative IPC: 0.996349 (Simulation time: 0 hr 12 min 52 sec) 
Heartbeat CPU 0 instructions: 520000002 cycles: 453814979 heartbeat IPC: 1.02976 cumulative IPC: 0.997119 (Simulation time: 0 hr 13 min 5 sec) 
Heartbeat CPU 0 instructions: 530000001 cycles: 463491582 heartbeat IPC: 1.03342 cumulative IPC: 0.997934 (Simulation time: 0 hr 13 min 19 sec) 
Heartbeat CPU 0 instructions: 540000000 cycles: 472907912 heartbeat IPC: 1.06198 cumulative IPC: 0.999304 (Simulation time: 0 hr 13 min 32 sec) 
Heartbeat CPU 0 instructions: 550000000 cycles: 485081843 heartbeat IPC: 0.821427 cumulative IPC: 0.994518 (Simulation time: 0 hr 13 min 47 sec) 
Heartbeat CPU 0 instructions: 560000002 cycles: 495061673 heartbeat IPC: 1.00202 cumulative IPC: 0.99468 (Simulation time: 0 hr 14 min 1 sec) 
Heartbeat CPU 0 instructions: 570000003 cycles: 505288369 heartbeat IPC: 0.977833 cumulative IPC: 0.994316 (Simulation time: 0 hr 14 min 14 sec) 
Heartbeat CPU 0 instructions: 580000002 cycles: 515154500 heartbeat IPC: 1.01357 cumulative IPC: 0.994709 (Simulation time: 0 hr 14 min 27 sec) 
Heartbeat CPU 0 instructions: 590000000 cycles: 525127345 heartbeat IPC: 1.00272 cumulative IPC: 0.994872 (Simulation time: 0 hr 14 min 41 sec) 
Heartbeat CPU 0 instructions: 600000002 cycles: 535338275 heartbeat IPC: 0.979343 cumulative IPC: 0.994556 (Simulation time: 0 hr 14 min 54 sec) 
Heartbeat CPU 0 instructions: 610000003 cycles: 545466682 heartbeat IPC: 0.987322 cumulative IPC: 0.994413 (Simulation time: 0 hr 15 min 8 sec) 
Heartbeat CPU 0 instructions: 620000000 cycles: 555005189 heartbeat IPC: 1.04838 cumulative IPC: 0.995399 (Simulation time: 0 hr 15 min 21 sec) 
Heartbeat CPU 0 instructions: 630000000 cycles: 564918541 heartbeat IPC: 1.00874 cumulative IPC: 0.995647 (Simulation time: 0 hr 15 min 35 sec) 
Heartbeat CPU 0 instructions: 640000003 cycles: 574990292 heartbeat IPC: 0.992876 cumulative IPC: 0.995596 (Simulation time: 0 hr 15 min 48 sec) 
Heartbeat CPU 0 instructions: 650000001 cycles: 584393525 heartbeat IPC: 1.06346 cumulative IPC: 0.996752 (Simulation time: 0 hr 16 min 1 sec) 
Heartbeat CPU 0 instructions: 660000000 cycles: 594378263 heartbeat IPC: 1.00153 cumulative IPC: 0.996837 (Simulation time: 0 hr 16 min 15 sec) 
Heartbeat CPU 0 instructions: 670000000 cycles: 604549313 heartbeat IPC: 0.983183 cumulative IPC: 0.996594 (Simulation time: 0 hr 16 min 28 sec) 
Heartbeat CPU 0 instructions: 680000003 cycles: 613783682 heartbeat IPC: 1.08291 cumulative IPC: 0.997966 (Simulation time: 0 hr 16 min 41 sec) 
Heartbeat CPU 0 instructions: 690000001 cycles: 624408063 heartbeat IPC: 0.941231 cumulative IPC: 0.996947 (Simulation time: 0 hr 16 min 55 sec) 
Heartbeat CPU 0 instructions: 700000001 cycles: 634136038 heartbeat IPC: 1.02796 cumulative IPC: 0.997449 (Simulation time: 0 hr 17 min 9 sec) 
Heartbeat CPU 0 instructions: 710000001 cycles: 644252550 heartbeat IPC: 0.988483 cumulative IPC: 0.997301 (Simulation time: 0 hr 17 min 23 sec) 
Heartbeat CPU 0 instructions: 720000001 cycles: 654250046 heartbeat IPC: 1.00025 cumulative IPC: 0.997348 (Simulation time: 0 hr 17 min 37 sec) 
Heartbeat CPU 0 instructions: 730000003 cycles: 663807733 heartbeat IPC: 1.04628 cumulative IPC: 0.998089 (Simulation time: 0 hr 17 min 51 sec) 
Heartbeat CPU 0 instructions: 740000001 cycles: 673727528 heartbeat IPC: 1.00809 cumulative IPC: 0.998244 (Simulation time: 0 hr 18 min 6 sec) 
Heartbeat CPU 0 instructions: 750000000 cycles: 682262513 heartbeat IPC: 1.17165 cumulative IPC: 1.00052 (Simulation time: 0 hr 18 min 18 sec) 
Heartbeat CPU 0 instructions: 760000000 cycles: 690397077 heartbeat IPC: 1.22932 cumulative IPC: 1.00335 (Simulation time: 0 hr 18 min 31 sec) 
Heartbeat CPU 0 instructions: 770000000 cycles: 698579351 heartbeat IPC: 1.22215 cumulative IPC: 1.00604 (Simulation time: 0 hr 18 min 43 sec) 
Heartbeat CPU 0 instructions: 780000001 cycles: 706619225 heartbeat IPC: 1.2438 cumulative IPC: 1.00888 (Simulation time: 0 hr 18 min 55 sec) 
Heartbeat CPU 0 instructions: 790000000 cycles: 714813405 heartbeat IPC: 1.22038 cumulative IPC: 1.01142 (Simulation time: 0 hr 19 min 8 sec) 
Heartbeat CPU 0 instructions: 800000001 cycles: 722975447 heartbeat IPC: 1.22518 cumulative IPC: 1.01394 (Simulation time: 0 hr 19 min 20 sec) 
Heartbeat CPU 0 instructions: 810000000 cycles: 731144439 heartbeat IPC: 1.22414 cumulative IPC: 1.0164 (Simulation time: 0 hr 19 min 33 sec) 
Heartbeat CPU 0 instructions: 820000001 cycles: 739207601 heartbeat IPC: 1.24021 cumulative IPC: 1.01896 (Simulation time: 0 hr 19 min 45 sec) 
Heartbeat CPU 0 instructions: 830000000 cycles: 747487682 heartbeat IPC: 1.20772 cumulative IPC: 1.02114 (Simulation time: 0 hr 19 min 58 sec) 
Heartbeat CPU 0 instructions: 840000002 cycles: 755475557 heartbeat IPC: 1.2519 cumulative IPC: 1.02369 (Simulation time: 0 hr 20 min 10 sec) 
Heartbeat CPU 0 instructions: 850000003 cycles: 763757198 heartbeat IPC: 1.20749 cumulative IPC: 1.02577 (Simulation time: 0 hr 20 min 22 sec) 
Heartbeat CPU 0 instructions: 860000003 cycles: 771896577 heartbeat IPC: 1.22859 cumulative IPC: 1.02801 (Simulation time: 0 hr 20 min 35 sec) 
Heartbeat CPU 0 instructions: 870000002 cycles: 780131942 heartbeat IPC: 1.21428 cumulative IPC: 1.03006 (Simulation time: 0 hr 20 min 47 sec) 
Heartbeat CPU 0 instructions: 880000000 cycles: 788228917 heartbeat IPC: 1.23503 cumulative IPC: 1.03225 (Simulation time: 0 hr 21 min 0 sec) 
Heartbeat CPU 0 instructions: 890000003 cycles: 796322033 heartbeat IPC: 1.23562 cumulative IPC: 1.03441 (Simulation time: 0 hr 21 min 13 sec) 
Heartbeat CPU 0 instructions: 900000000 cycles: 804514010 heartbeat IPC: 1.22071 cumulative IPC: 1.03639 (Simulation time: 0 hr 21 min 25 sec) 
Heartbeat CPU 0 instructions: 910000002 cycles: 812701353 heartbeat IPC: 1.2214 cumulative IPC: 1.03833 (Simulation time: 0 hr 21 min 37 sec) 
Heartbeat CPU 0 instructions: 920000001 cycles: 820918424 heartbeat IPC: 1.21698 cumulative IPC: 1.04019 (Simulation time: 0 hr 21 min 50 sec) 
Heartbeat CPU 0 instructions: 930000001 cycles: 830365177 heartbeat IPC: 1.05856 cumulative IPC: 1.04041 (Simulation time: 0 hr 22 min 3 sec) 
Heartbeat CPU 0 instructions: 940000000 cycles: 840779194 heartbeat IPC: 0.960244 cumulative IPC: 1.03938 (Simulation time: 0 hr 22 min 17 sec) 
Heartbeat CPU 0 instructions: 950000000 cycles: 852296705 heartbeat IPC: 0.868243 cumulative IPC: 1.03697 (Simulation time: 0 hr 22 min 32 sec) 
Heartbeat CPU 0 instructions: 960000002 cycles: 861383077 heartbeat IPC: 1.10055 cumulative IPC: 1.03767 (Simulation time: 0 hr 22 min 45 sec) 
Heartbeat CPU 0 instructions: 970000002 cycles: 870997742 heartbeat IPC: 1.04008 cumulative IPC: 1.0377 (Simulation time: 0 hr 22 min 58 sec) 
Heartbeat CPU 0 instructions: 980000000 cycles: 883168157 heartbeat IPC: 0.821665 cumulative IPC: 1.0346 (Simulation time: 0 hr 23 min 13 sec) 
Heartbeat CPU 0 instructions: 990000000 cycles: 895864210 heartbeat IPC: 0.787646 cumulative IPC: 1.03097 (Simulation time: 0 hr 23 min 28 sec) 
Heartbeat CPU 0 instructions: 1000000002 cycles: 905925655 heartbeat IPC: 0.993893 cumulative IPC: 1.03055 (Simulation time: 0 hr 23 min 42 sec) 
Heartbeat CPU 0 instructions: 1010000003 cycles: 915396547 heartbeat IPC: 1.05587 cumulative IPC: 1.03082 (Simulation time: 0 hr 23 min 55 sec) 
Heartbeat CPU 0 instructions: 1020000000 cycles: 928378620 heartbeat IPC: 0.770293 cumulative IPC: 1.02704 (Simulation time: 0 hr 24 min 10 sec) 
Heartbeat CPU 0 instructions: 1030000002 cycles: 942879379 heartbeat IPC: 0.689619 cumulative IPC: 1.02167 (Simulation time: 0 hr 24 min 26 sec) 
Heartbeat CPU 0 instructions: 1040000003 cycles: 958501780 heartbeat IPC: 0.640107 cumulative IPC: 1.01523 (Simulation time: 0 hr 24 min 42 sec) 
Heartbeat CPU 0 instructions: 1050000000 cycles: 972580161 heartbeat IPC: 0.710309 cumulative IPC: 1.01066 (Simulation time: 0 hr 24 min 57 sec) 
Heartbeat CPU 0 instructions: 1060000002 cycles: 984587888 heartbeat IPC: 0.832797 cumulative IPC: 1.00842 (Simulation time: 0 hr 25 min 12 sec) 
Heartbeat CPU 0 instructions: 1070000001 cycles: 994039755 heartbeat IPC: 1.05799 cumulative IPC: 1.00891 (Simulation time: 0 hr 25 min 25 sec) 
Heartbeat CPU 0 instructions: 1080000002 cycles: 1002809773 heartbeat IPC: 1.14025 cumulative IPC: 1.01009 (Simulation time: 0 hr 25 min 38 sec) 
Heartbeat CPU 0 instructions: 1090000001 cycles: 1014339682 heartbeat IPC: 0.867309 cumulative IPC: 1.00842 (Simulation time: 0 hr 25 min 52 sec) 
Heartbeat CPU 0 instructions: 1100000000 cycles: 1025731629 heartbeat IPC: 0.877813 cumulative IPC: 1.00692 (Simulation time: 0 hr 26 min 7 sec) 
Finished CPU 0 instructions: 1000000002 cycles: 993130144 cumulative IPC: 1.00692 (Simulation time: 0 hr 26 min 7 sec) 

ChampSim completed all CPUs

Region of Interest Statistics

CPU 0 cumulative IPC: 1.00692 instructions: 1000000002 cycles: 993130144
L1D TOTAL     ACCESS:  243910373  HIT:  237627625  MISS:    6282748
L1D LOAD      ACCESS:  180431880  HIT:  175811753  MISS:    4620127
L1D RFO       ACCESS:   63478493  HIT:   61815872  MISS:    1662621
L1D PREFETCH  ACCESS:          0  HIT:          0  MISS:          0
L1D WRITEBACK ACCESS:          0  HIT:          0  MISS:          0
L1D PREFETCH  REQUESTED:          0  ISSUED:          0  USEFUL:          0  USELESS:          0
L1D AVERAGE MISS LATENCY: 67.4005 cycles
L1I TOTAL     ACCESS:  165101517  HIT:  165098227  MISS:       3290
L1I LOAD      ACCESS:  165101517  HIT:  165098227  MISS:       3290
L1I RFO       ACCESS:          0  HIT:          0  MISS:          0
L1I PREFETCH  ACCESS:          0  HIT:          0  MISS:          0
L1I WRITEBACK ACCESS:          0  HIT:          0  MISS:          0
L1I PREFETCH  REQUESTED:          0  ISSUED:          0  USEFUL:          0  USELESS:          0
L1I AVERAGE MISS LATENCY: 57.2584 cycles
L2C TOTAL     ACCESS:   10935800  HIT:    8666215  MISS:    2269585
L2C LOAD      ACCESS:    4623263  HIT:    2861928  MISS:    1761335
L2C RFO       ACCESS:    1661420  HIT:    1160631  MISS:     500789
L2C PREFETCH  ACCESS:          0  HIT:          0  MISS:          0
L2C WRITEBACK ACCESS:    4651117  HIT:    4643656  MISS:       7461
L2C PREFETCH  REQUESTED:          0  ISSUED:          0  USEFUL:          0  USELESS:          0
L2C AVERAGE MISS LATENCY: 150.324 cycles
LLC TOTAL     ACCESS:    3834823  HIT:    2044757  MISS:    1790066
LLC LOAD      ACCESS:    1761331  HIT:     907180  MISS:     854151
LLC RFO       ACCESS:     500777  HIT:     129282  MISS:     371495
LLC PREFETCH  ACCESS:          0  HIT:          0  MISS:          0
LLC WRITEBACK ACCESS:    1572715  HIT:    1008295  MISS:     564420
LLC PREFETCH  REQUESTED:          0  ISSUED:          0  USEFUL:          0  USELESS:          0
LLC AVERAGE MISS LATENCY: 138.318 cycles
Major fault: 0 Minor fault: 11705
==============================
Perceptron RRIP Stats:
   Num Updates:          188948
   Num Primary Trains:   17100
   Num Secondary Trains: 16934
==============================
primary_perceptron #0: 0 0 2 -2 0 2 2 2 0 0 0 2 -2 0 0 -12 
secondary_perceptron #0: -2 -2 0 -2 0 0 4 2 -2 -2 -2 4 -4 0 0 2 -2 -2 -2 0 -16 


DRAM Statistics
 CHANNEL 0
 RQ ROW_BUFFER_HIT:     107222  ROW_BUFFER_MISS:    1118409
 DBUS_CONGESTED:     239030
 WQ ROW_BUFFER_HIT:     128477  ROW_BUFFER_MISS:     766181  FULL:      20025

 AVG_CONGESTED_CYCLE: 6

CPU 0 Branch Prediction Accuracy: 92.6995% MPKI: 10.9797 Average ROB Occupancy at Mispredict: 18.9026

Branch types
NOT_BRANCH: 849602978 84.9603%
BRANCH_DIRECT_JUMP: 6669032 0.666903%
BRANCH_INDIRECT: 1417678 0.141768%
BRANCH_CONDITIONAL: 140970714 14.0971%
BRANCH_DIRECT_CALL: 442832 0.0442832%
BRANCH_INDIRECT_CALL: 226828 0.0226828%
BRANCH_RETURN: 669661 0.0669661%
BRANCH_OTHER: 0 0%

