
*** ChampSim Multicore Out-of-Order Simulator ***

Warmup Instructions: 100000000
Simulation Instructions: 1000000000
Number of CPUs: 1
LLC sets: 2048
LLC ways: 16
Off-chip DRAM Size: 4096 MB Channels: 1 Width: 64-bit Data Rate: 3200 MT/s

CPU 0 runs /scratch/user/kevin.weston/dpc3-traces/657.champsimtrace.xz
CPU 0 Bimodal branch predictor
Initialize DRRIP state
Assign rand_sets[0]: 454  LLC: 2048
rand_sets[0]: 454
Assign rand_sets[1]: 1662  LLC: 2048
rand_sets[1]: 1662
Assign rand_sets[2]: 1921  LLC: 2048
rand_sets[2]: 1921
Assign rand_sets[3]: 1131  LLC: 2048
rand_sets[3]: 1131
Assign rand_sets[4]: 331  LLC: 2048
rand_sets[4]: 331
Assign rand_sets[5]: 1531  LLC: 2048
rand_sets[5]: 1531
Assign rand_sets[6]: 482  LLC: 2048
rand_sets[6]: 482
Assign rand_sets[7]: 1275  LLC: 2048
rand_sets[7]: 1275
Assign rand_sets[8]: 1876  LLC: 2048
rand_sets[8]: 1876
Assign rand_sets[9]: 2038  LLC: 2048
rand_sets[9]: 2038
Assign rand_sets[10]: 701  LLC: 2048
rand_sets[10]: 701
Assign rand_sets[11]: 479  LLC: 2048
rand_sets[11]: 479
Assign rand_sets[12]: 892  LLC: 2048
rand_sets[12]: 892
Assign rand_sets[13]: 1820  LLC: 2048
rand_sets[13]: 1820
Assign rand_sets[14]: 1505  LLC: 2048
rand_sets[14]: 1505
Assign rand_sets[15]: 1159  LLC: 2048
rand_sets[15]: 1159
Assign rand_sets[16]: 513  LLC: 2048
rand_sets[16]: 513
Assign rand_sets[17]: 703  LLC: 2048
rand_sets[17]: 703
Assign rand_sets[18]: 561  LLC: 2048
rand_sets[18]: 561
Assign rand_sets[19]: 990  LLC: 2048
rand_sets[19]: 990
Assign rand_sets[20]: 342  LLC: 2048
rand_sets[20]: 342
Assign rand_sets[21]: 882  LLC: 2048
rand_sets[21]: 882
Assign rand_sets[22]: 15  LLC: 2048
rand_sets[22]: 15
Assign rand_sets[23]: 71  LLC: 2048
rand_sets[23]: 71
Assign rand_sets[24]: 1127  LLC: 2048
rand_sets[24]: 1127
Assign rand_sets[25]: 1382  LLC: 2048
rand_sets[25]: 1382
Assign rand_sets[26]: 647  LLC: 2048
rand_sets[26]: 647
Assign rand_sets[27]: 857  LLC: 2048
rand_sets[27]: 857
Assign rand_sets[28]: 1450  LLC: 2048
rand_sets[28]: 1450
Assign rand_sets[29]: 1160  LLC: 2048
rand_sets[29]: 1160
Assign rand_sets[30]: 1852  LLC: 2048
rand_sets[30]: 1852
Assign rand_sets[31]: 1881  LLC: 2048
rand_sets[31]: 1881
Assign rand_sets[32]: 1770  LLC: 2048
rand_sets[32]: 1770
Assign rand_sets[33]: 1622  LLC: 2048
rand_sets[33]: 1622
Assign rand_sets[34]: 275  LLC: 2048
rand_sets[34]: 275
Assign rand_sets[35]: 635  LLC: 2048
rand_sets[35]: 635
Assign rand_sets[36]: 466  LLC: 2048
rand_sets[36]: 466
Assign rand_sets[37]: 1413  LLC: 2048
rand_sets[37]: 1413
Assign rand_sets[38]: 417  LLC: 2048
rand_sets[38]: 417
Assign rand_sets[39]: 472  LLC: 2048
rand_sets[39]: 472
Assign rand_sets[40]: 1340  LLC: 2048
rand_sets[40]: 1340
Assign rand_sets[41]: 852  LLC: 2048
rand_sets[41]: 852
Assign rand_sets[42]: 1365  LLC: 2048
rand_sets[42]: 1365
Assign rand_sets[43]: 47  LLC: 2048
rand_sets[43]: 47
Assign rand_sets[44]: 823  LLC: 2048
rand_sets[44]: 823
Assign rand_sets[45]: 686  LLC: 2048
rand_sets[45]: 686
Assign rand_sets[46]: 1637  LLC: 2048
rand_sets[46]: 1637
Assign rand_sets[47]: 1115  LLC: 2048
rand_sets[47]: 1115
Assign rand_sets[48]: 986  LLC: 2048
rand_sets[48]: 986
Assign rand_sets[49]: 258  LLC: 2048
rand_sets[49]: 258
Assign rand_sets[50]: 633  LLC: 2048
rand_sets[50]: 633
Assign rand_sets[51]: 920  LLC: 2048
rand_sets[51]: 920
Assign rand_sets[52]: 204  LLC: 2048
rand_sets[52]: 204
Assign rand_sets[53]: 227  LLC: 2048
rand_sets[53]: 227
Assign rand_sets[54]: 1818  LLC: 2048
rand_sets[54]: 1818
Assign rand_sets[55]: 886  LLC: 2048
rand_sets[55]: 886
Assign rand_sets[56]: 1422  LLC: 2048
rand_sets[56]: 1422
Assign rand_sets[57]: 607  LLC: 2048
rand_sets[57]: 607
Assign rand_sets[58]: 217  LLC: 2048
rand_sets[58]: 217
Assign rand_sets[59]: 1945  LLC: 2048
rand_sets[59]: 1945
Assign rand_sets[60]: 143  LLC: 2048
rand_sets[60]: 143
Assign rand_sets[61]: 1311  LLC: 2048
rand_sets[61]: 1311
Assign rand_sets[62]: 319  LLC: 2048
rand_sets[62]: 319
Assign rand_sets[63]: 1846  LLC: 2048
rand_sets[63]: 1846
Heartbeat CPU 0 instructions: 10000003 cycles: 3242282 heartbeat IPC: 3.08425 cumulative IPC: 3.08425 (Simulation time: 0 hr 0 min 21 sec) 
Heartbeat CPU 0 instructions: 20000003 cycles: 6524221 heartbeat IPC: 3.04698 cumulative IPC: 3.0655 (Simulation time: 0 hr 0 min 42 sec) 
Heartbeat CPU 0 instructions: 30000001 cycles: 9797659 heartbeat IPC: 3.05489 cumulative IPC: 3.06196 (Simulation time: 0 hr 1 min 3 sec) 
Heartbeat CPU 0 instructions: 40000000 cycles: 13049172 heartbeat IPC: 3.07549 cumulative IPC: 3.06533 (Simulation time: 0 hr 1 min 24 sec) 
Heartbeat CPU 0 instructions: 50000001 cycles: 16302324 heartbeat IPC: 3.07394 cumulative IPC: 3.06705 (Simulation time: 0 hr 1 min 45 sec) 
Heartbeat CPU 0 instructions: 60000000 cycles: 19551504 heartbeat IPC: 3.0777 cumulative IPC: 3.06882 (Simulation time: 0 hr 2 min 5 sec) 
Heartbeat CPU 0 instructions: 70000000 cycles: 22783473 heartbeat IPC: 3.09409 cumulative IPC: 3.0724 (Simulation time: 0 hr 2 min 26 sec) 
Heartbeat CPU 0 instructions: 80000001 cycles: 26035724 heartbeat IPC: 3.07479 cumulative IPC: 3.0727 (Simulation time: 0 hr 2 min 47 sec) 
Heartbeat CPU 0 instructions: 90000002 cycles: 29321318 heartbeat IPC: 3.04359 cumulative IPC: 3.06944 (Simulation time: 0 hr 3 min 8 sec) 
Heartbeat CPU 0 instructions: 100000003 cycles: 32601164 heartbeat IPC: 3.04892 cumulative IPC: 3.06738 (Simulation time: 0 hr 3 min 30 sec) 

Warmup complete CPU 0 instructions: 100000003 cycles: 32601164 (Simulation time: 0 hr 3 min 30 sec) 

Heartbeat CPU 0 instructions: 110000000 cycles: 42299122 heartbeat IPC: 1.03114 cumulative IPC: 1.03114 (Simulation time: 0 hr 3 min 43 sec) 
Heartbeat CPU 0 instructions: 120000000 cycles: 51313658 heartbeat IPC: 1.10932 cumulative IPC: 1.0688 (Simulation time: 0 hr 3 min 56 sec) 
Heartbeat CPU 0 instructions: 130000003 cycles: 59520109 heartbeat IPC: 1.21855 cumulative IPC: 1.11446 (Simulation time: 0 hr 4 min 8 sec) 
Heartbeat CPU 0 instructions: 140000001 cycles: 68659084 heartbeat IPC: 1.09421 cumulative IPC: 1.10933 (Simulation time: 0 hr 4 min 21 sec) 
Heartbeat CPU 0 instructions: 150000000 cycles: 76905055 heartbeat IPC: 1.21271 cumulative IPC: 1.12857 (Simulation time: 0 hr 4 min 33 sec) 
Heartbeat CPU 0 instructions: 160000000 cycles: 84918223 heartbeat IPC: 1.24795 cumulative IPC: 1.14685 (Simulation time: 0 hr 4 min 46 sec) 
Heartbeat CPU 0 instructions: 170000001 cycles: 94599267 heartbeat IPC: 1.03295 cumulative IPC: 1.12907 (Simulation time: 0 hr 4 min 59 sec) 
Heartbeat CPU 0 instructions: 180000001 cycles: 106000811 heartbeat IPC: 0.877074 cumulative IPC: 1.08992 (Simulation time: 0 hr 5 min 13 sec) 
Heartbeat CPU 0 instructions: 190000000 cycles: 118857269 heartbeat IPC: 0.777819 cumulative IPC: 1.0434 (Simulation time: 0 hr 5 min 27 sec) 
Heartbeat CPU 0 instructions: 200000000 cycles: 130780058 heartbeat IPC: 0.83873 cumulative IPC: 1.01855 (Simulation time: 0 hr 5 min 42 sec) 
Heartbeat CPU 0 instructions: 210000001 cycles: 142495925 heartbeat IPC: 0.853543 cumulative IPC: 1.00096 (Simulation time: 0 hr 5 min 56 sec) 
Heartbeat CPU 0 instructions: 220000000 cycles: 153175635 heartbeat IPC: 0.936355 cumulative IPC: 0.995236 (Simulation time: 0 hr 6 min 10 sec) 
Heartbeat CPU 0 instructions: 230000002 cycles: 163110302 heartbeat IPC: 1.00658 cumulative IPC: 0.996099 (Simulation time: 0 hr 6 min 23 sec) 
Heartbeat CPU 0 instructions: 240000001 cycles: 172868266 heartbeat IPC: 1.0248 cumulative IPC: 0.998096 (Simulation time: 0 hr 6 min 37 sec) 
Heartbeat CPU 0 instructions: 250000003 cycles: 181920177 heartbeat IPC: 1.10474 cumulative IPC: 1.00456 (Simulation time: 0 hr 6 min 50 sec) 
Heartbeat CPU 0 instructions: 260000002 cycles: 190280533 heartbeat IPC: 1.19612 cumulative IPC: 1.01472 (Simulation time: 0 hr 7 min 3 sec) 
Heartbeat CPU 0 instructions: 270000000 cycles: 198399533 heartbeat IPC: 1.23168 cumulative IPC: 1.02534 (Simulation time: 0 hr 7 min 15 sec) 
Heartbeat CPU 0 instructions: 280000000 cycles: 209743424 heartbeat IPC: 0.881532 cumulative IPC: 1.01613 (Simulation time: 0 hr 7 min 29 sec) 
Heartbeat CPU 0 instructions: 290000001 cycles: 219651063 heartbeat IPC: 1.00932 cumulative IPC: 1.01577 (Simulation time: 0 hr 7 min 42 sec) 
Heartbeat CPU 0 instructions: 300000002 cycles: 228618861 heartbeat IPC: 1.1151 cumulative IPC: 1.02032 (Simulation time: 0 hr 7 min 55 sec) 
Heartbeat CPU 0 instructions: 310000001 cycles: 237350144 heartbeat IPC: 1.14531 cumulative IPC: 1.02565 (Simulation time: 0 hr 8 min 8 sec) 
Heartbeat CPU 0 instructions: 320000003 cycles: 247044344 heartbeat IPC: 1.03154 cumulative IPC: 1.02591 (Simulation time: 0 hr 8 min 22 sec) 
Heartbeat CPU 0 instructions: 330000000 cycles: 255821529 heartbeat IPC: 1.13932 cumulative IPC: 1.03037 (Simulation time: 0 hr 8 min 35 sec) 
Heartbeat CPU 0 instructions: 340000003 cycles: 265933521 heartbeat IPC: 0.988925 cumulative IPC: 1.02858 (Simulation time: 0 hr 8 min 48 sec) 
Heartbeat CPU 0 instructions: 350000001 cycles: 276662710 heartbeat IPC: 0.932037 cumulative IPC: 1.02433 (Simulation time: 0 hr 9 min 1 sec) 
Heartbeat CPU 0 instructions: 360000000 cycles: 287513051 heartbeat IPC: 0.92163 cumulative IPC: 1.01996 (Simulation time: 0 hr 9 min 15 sec) 
Heartbeat CPU 0 instructions: 370000002 cycles: 297370897 heartbeat IPC: 1.01442 cumulative IPC: 1.01975 (Simulation time: 0 hr 9 min 29 sec) 
Heartbeat CPU 0 instructions: 380000003 cycles: 306779369 heartbeat IPC: 1.06287 cumulative IPC: 1.02123 (Simulation time: 0 hr 9 min 42 sec) 
Heartbeat CPU 0 instructions: 390000002 cycles: 317793952 heartbeat IPC: 0.907887 cumulative IPC: 1.01686 (Simulation time: 0 hr 9 min 55 sec) 
Heartbeat CPU 0 instructions: 400000000 cycles: 328332061 heartbeat IPC: 0.948937 cumulative IPC: 1.01444 (Simulation time: 0 hr 10 min 9 sec) 
Heartbeat CPU 0 instructions: 410000000 cycles: 339199584 heartbeat IPC: 0.920173 cumulative IPC: 1.01109 (Simulation time: 0 hr 10 min 23 sec) 
Heartbeat CPU 0 instructions: 420000000 cycles: 350361025 heartbeat IPC: 0.895942 cumulative IPC: 1.00705 (Simulation time: 0 hr 10 min 37 sec) 
Heartbeat CPU 0 instructions: 430000001 cycles: 360310985 heartbeat IPC: 1.00503 cumulative IPC: 1.00699 (Simulation time: 0 hr 10 min 51 sec) 
Heartbeat CPU 0 instructions: 440000000 cycles: 370185237 heartbeat IPC: 1.01273 cumulative IPC: 1.00716 (Simulation time: 0 hr 11 min 6 sec) 
Heartbeat CPU 0 instructions: 450000003 cycles: 380042028 heartbeat IPC: 1.01453 cumulative IPC: 1.00737 (Simulation time: 0 hr 11 min 20 sec) 
Heartbeat CPU 0 instructions: 460000003 cycles: 389721507 heartbeat IPC: 1.03311 cumulative IPC: 1.00806 (Simulation time: 0 hr 11 min 35 sec) 
Heartbeat CPU 0 instructions: 470000002 cycles: 399664672 heartbeat IPC: 1.00572 cumulative IPC: 1.008 (Simulation time: 0 hr 11 min 49 sec) 
Heartbeat CPU 0 instructions: 480000001 cycles: 408963056 heartbeat IPC: 1.07546 cumulative IPC: 1.00967 (Simulation time: 0 hr 12 min 2 sec) 
Heartbeat CPU 0 instructions: 490000002 cycles: 418012658 heartbeat IPC: 1.10502 cumulative IPC: 1.01191 (Simulation time: 0 hr 12 min 15 sec) 
Heartbeat CPU 0 instructions: 500000002 cycles: 427664723 heartbeat IPC: 1.03605 cumulative IPC: 1.0125 (Simulation time: 0 hr 12 min 28 sec) 
Heartbeat CPU 0 instructions: 510000000 cycles: 441533636 heartbeat IPC: 0.721037 cumulative IPC: 1.00261 (Simulation time: 0 hr 12 min 46 sec) 
Heartbeat CPU 0 instructions: 520000002 cycles: 451391665 heartbeat IPC: 1.0144 cumulative IPC: 1.00289 (Simulation time: 0 hr 13 min 0 sec) 
Heartbeat CPU 0 instructions: 530000001 cycles: 460936365 heartbeat IPC: 1.0477 cumulative IPC: 1.00389 (Simulation time: 0 hr 13 min 13 sec) 
Heartbeat CPU 0 instructions: 540000000 cycles: 470184975 heartbeat IPC: 1.08124 cumulative IPC: 1.00552 (Simulation time: 0 hr 13 min 27 sec) 
Heartbeat CPU 0 instructions: 550000000 cycles: 482029678 heartbeat IPC: 0.844259 cumulative IPC: 1.00127 (Simulation time: 0 hr 13 min 41 sec) 
Heartbeat CPU 0 instructions: 560000002 cycles: 491699527 heartbeat IPC: 1.03414 cumulative IPC: 1.00196 (Simulation time: 0 hr 13 min 55 sec) 
Heartbeat CPU 0 instructions: 570000003 cycles: 501491511 heartbeat IPC: 1.02124 cumulative IPC: 1.00237 (Simulation time: 0 hr 14 min 8 sec) 
Heartbeat CPU 0 instructions: 580000002 cycles: 511180762 heartbeat IPC: 1.03207 cumulative IPC: 1.00297 (Simulation time: 0 hr 14 min 21 sec) 
Heartbeat CPU 0 instructions: 590000000 cycles: 520965353 heartbeat IPC: 1.02201 cumulative IPC: 1.00335 (Simulation time: 0 hr 14 min 35 sec) 
Heartbeat CPU 0 instructions: 600000002 cycles: 531004381 heartbeat IPC: 0.996113 cumulative IPC: 1.0032 (Simulation time: 0 hr 14 min 48 sec) 
Heartbeat CPU 0 instructions: 610000003 cycles: 540974568 heartbeat IPC: 1.00299 cumulative IPC: 1.0032 (Simulation time: 0 hr 15 min 2 sec) 
Heartbeat CPU 0 instructions: 620000000 cycles: 550369222 heartbeat IPC: 1.06443 cumulative IPC: 1.00431 (Simulation time: 0 hr 15 min 15 sec) 
Heartbeat CPU 0 instructions: 630000000 cycles: 560166105 heartbeat IPC: 1.02073 cumulative IPC: 1.00462 (Simulation time: 0 hr 15 min 28 sec) 
Heartbeat CPU 0 instructions: 640000003 cycles: 570027667 heartbeat IPC: 1.01404 cumulative IPC: 1.00479 (Simulation time: 0 hr 15 min 42 sec) 
Heartbeat CPU 0 instructions: 650000001 cycles: 579066327 heartbeat IPC: 1.10636 cumulative IPC: 1.00647 (Simulation time: 0 hr 15 min 54 sec) 
Heartbeat CPU 0 instructions: 660000000 cycles: 588907784 heartbeat IPC: 1.01611 cumulative IPC: 1.00664 (Simulation time: 0 hr 16 min 7 sec) 
Heartbeat CPU 0 instructions: 670000000 cycles: 598911360 heartbeat IPC: 0.999643 cumulative IPC: 1.00652 (Simulation time: 0 hr 16 min 21 sec) 
Heartbeat CPU 0 instructions: 680000003 cycles: 608177648 heartbeat IPC: 1.07918 cumulative IPC: 1.00769 (Simulation time: 0 hr 16 min 34 sec) 
Heartbeat CPU 0 instructions: 690000001 cycles: 618712240 heartbeat IPC: 0.949253 cumulative IPC: 1.00664 (Simulation time: 0 hr 16 min 47 sec) 
Heartbeat CPU 0 instructions: 700000001 cycles: 628269163 heartbeat IPC: 1.04636 cumulative IPC: 1.00727 (Simulation time: 0 hr 17 min 1 sec) 
Heartbeat CPU 0 instructions: 710000001 cycles: 638175995 heartbeat IPC: 1.0094 cumulative IPC: 1.00731 (Simulation time: 0 hr 17 min 16 sec) 
Heartbeat CPU 0 instructions: 720000001 cycles: 648018990 heartbeat IPC: 1.01595 cumulative IPC: 1.00745 (Simulation time: 0 hr 17 min 30 sec) 
Heartbeat CPU 0 instructions: 730000003 cycles: 657376995 heartbeat IPC: 1.0686 cumulative IPC: 1.00836 (Simulation time: 0 hr 17 min 43 sec) 
Heartbeat CPU 0 instructions: 740000001 cycles: 667124492 heartbeat IPC: 1.0259 cumulative IPC: 1.00863 (Simulation time: 0 hr 17 min 58 sec) 
Heartbeat CPU 0 instructions: 750000000 cycles: 675535389 heartbeat IPC: 1.18893 cumulative IPC: 1.01099 (Simulation time: 0 hr 18 min 10 sec) 
Heartbeat CPU 0 instructions: 760000000 cycles: 683613784 heartbeat IPC: 1.23787 cumulative IPC: 1.01381 (Simulation time: 0 hr 18 min 22 sec) 
Heartbeat CPU 0 instructions: 770000000 cycles: 691743338 heartbeat IPC: 1.23008 cumulative IPC: 1.01647 (Simulation time: 0 hr 18 min 35 sec) 
Heartbeat CPU 0 instructions: 780000001 cycles: 699735753 heartbeat IPC: 1.25119 cumulative IPC: 1.01928 (Simulation time: 0 hr 18 min 47 sec) 
Heartbeat CPU 0 instructions: 790000000 cycles: 707881276 heartbeat IPC: 1.22767 cumulative IPC: 1.0218 (Simulation time: 0 hr 18 min 59 sec) 
Heartbeat CPU 0 instructions: 800000001 cycles: 716034097 heartbeat IPC: 1.22657 cumulative IPC: 1.02424 (Simulation time: 0 hr 19 min 12 sec) 
Heartbeat CPU 0 instructions: 810000000 cycles: 724185374 heartbeat IPC: 1.2268 cumulative IPC: 1.02663 (Simulation time: 0 hr 19 min 24 sec) 
Heartbeat CPU 0 instructions: 820000001 cycles: 732249211 heartbeat IPC: 1.2401 cumulative IPC: 1.02909 (Simulation time: 0 hr 19 min 37 sec) 
Heartbeat CPU 0 instructions: 830000000 cycles: 740542897 heartbeat IPC: 1.20574 cumulative IPC: 1.03116 (Simulation time: 0 hr 19 min 49 sec) 
Heartbeat CPU 0 instructions: 840000002 cycles: 748526201 heartbeat IPC: 1.25261 cumulative IPC: 1.03363 (Simulation time: 0 hr 20 min 1 sec) 
Heartbeat CPU 0 instructions: 850000003 cycles: 756816921 heartbeat IPC: 1.20617 cumulative IPC: 1.0356 (Simulation time: 0 hr 20 min 13 sec) 
Heartbeat CPU 0 instructions: 860000003 cycles: 764946725 heartbeat IPC: 1.23004 cumulative IPC: 1.03776 (Simulation time: 0 hr 20 min 26 sec) 
Heartbeat CPU 0 instructions: 870000002 cycles: 773177435 heartbeat IPC: 1.21496 cumulative IPC: 1.03973 (Simulation time: 0 hr 20 min 38 sec) 
Heartbeat CPU 0 instructions: 880000000 cycles: 781230673 heartbeat IPC: 1.24174 cumulative IPC: 1.0419 (Simulation time: 0 hr 20 min 50 sec) 
Heartbeat CPU 0 instructions: 890000003 cycles: 789257555 heartbeat IPC: 1.24581 cumulative IPC: 1.04407 (Simulation time: 0 hr 21 min 3 sec) 
Heartbeat CPU 0 instructions: 900000000 cycles: 797410153 heartbeat IPC: 1.2266 cumulative IPC: 1.04601 (Simulation time: 0 hr 21 min 15 sec) 
Heartbeat CPU 0 instructions: 910000002 cycles: 805566706 heartbeat IPC: 1.22601 cumulative IPC: 1.04791 (Simulation time: 0 hr 21 min 27 sec) 
Heartbeat CPU 0 instructions: 920000001 cycles: 813759215 heartbeat IPC: 1.22063 cumulative IPC: 1.04972 (Simulation time: 0 hr 21 min 39 sec) 
Heartbeat CPU 0 instructions: 930000001 cycles: 823204610 heartbeat IPC: 1.05872 cumulative IPC: 1.04983 (Simulation time: 0 hr 21 min 53 sec) 
Heartbeat CPU 0 instructions: 940000000 cycles: 833417447 heartbeat IPC: 0.97916 cumulative IPC: 1.04893 (Simulation time: 0 hr 22 min 6 sec) 
Heartbeat CPU 0 instructions: 950000000 cycles: 844640523 heartbeat IPC: 0.891021 cumulative IPC: 1.04675 (Simulation time: 0 hr 22 min 20 sec) 
Heartbeat CPU 0 instructions: 960000002 cycles: 853261265 heartbeat IPC: 1.15999 cumulative IPC: 1.04794 (Simulation time: 0 hr 22 min 32 sec) 
Heartbeat CPU 0 instructions: 970000002 cycles: 862694337 heartbeat IPC: 1.0601 cumulative IPC: 1.04808 (Simulation time: 0 hr 22 min 45 sec) 
Heartbeat CPU 0 instructions: 980000000 cycles: 874705207 heartbeat IPC: 0.832579 cumulative IPC: 1.045 (Simulation time: 0 hr 23 min 0 sec) 
Heartbeat CPU 0 instructions: 990000000 cycles: 887060709 heartbeat IPC: 0.809356 cumulative IPC: 1.04159 (Simulation time: 0 hr 23 min 14 sec) 
Heartbeat CPU 0 instructions: 1000000002 cycles: 897299548 heartbeat IPC: 0.976673 cumulative IPC: 1.04083 (Simulation time: 0 hr 23 min 28 sec) 
Heartbeat CPU 0 instructions: 1010000003 cycles: 906758901 heartbeat IPC: 1.05715 cumulative IPC: 1.041 (Simulation time: 0 hr 23 min 41 sec) 
Heartbeat CPU 0 instructions: 1020000000 cycles: 919727076 heartbeat IPC: 0.771118 cumulative IPC: 1.03706 (Simulation time: 0 hr 23 min 56 sec) 
Heartbeat CPU 0 instructions: 1030000002 cycles: 934137784 heartbeat IPC: 0.693929 cumulative IPC: 1.03157 (Simulation time: 0 hr 24 min 11 sec) 
Heartbeat CPU 0 instructions: 1040000003 cycles: 949652091 heartbeat IPC: 0.644566 cumulative IPC: 1.02502 (Simulation time: 0 hr 24 min 27 sec) 
Heartbeat CPU 0 instructions: 1050000000 cycles: 963825831 heartbeat IPC: 0.70553 cumulative IPC: 1.02016 (Simulation time: 0 hr 24 min 42 sec) 
Heartbeat CPU 0 instructions: 1060000002 cycles: 975770277 heartbeat IPC: 0.837209 cumulative IPC: 1.01785 (Simulation time: 0 hr 24 min 56 sec) 
Heartbeat CPU 0 instructions: 1070000001 cycles: 984986975 heartbeat IPC: 1.08499 cumulative IPC: 1.01849 (Simulation time: 0 hr 25 min 9 sec) 
Heartbeat CPU 0 instructions: 1080000002 cycles: 993593906 heartbeat IPC: 1.16185 cumulative IPC: 1.01978 (Simulation time: 0 hr 25 min 22 sec) 
Heartbeat CPU 0 instructions: 1090000001 cycles: 1005091903 heartbeat IPC: 0.869717 cumulative IPC: 1.018 (Simulation time: 0 hr 25 min 36 sec) 
Heartbeat CPU 0 instructions: 1100000000 cycles: 1016292337 heartbeat IPC: 0.892822 cumulative IPC: 1.01658 (Simulation time: 0 hr 25 min 50 sec) 
Finished CPU 0 instructions: 1000000002 cycles: 983691183 cumulative IPC: 1.01658 (Simulation time: 0 hr 25 min 50 sec) 

ChampSim completed all CPUs

Region of Interest Statistics

CPU 0 cumulative IPC: 1.01658 instructions: 1000000002 cycles: 983691183
L1D TOTAL     ACCESS:  244422357  HIT:  238139614  MISS:    6282743
L1D LOAD      ACCESS:  180950600  HIT:  176330470  MISS:    4620130
L1D RFO       ACCESS:   63471757  HIT:   61809144  MISS:    1662613
L1D PREFETCH  ACCESS:          0  HIT:          0  MISS:          0
L1D WRITEBACK ACCESS:          0  HIT:          0  MISS:          0
L1D PREFETCH  REQUESTED:          0  ISSUED:          0  USEFUL:          0  USELESS:          0
L1D AVERAGE MISS LATENCY: 67.2957 cycles
L1I TOTAL     ACCESS:  165097307  HIT:  165094017  MISS:       3290
L1I LOAD      ACCESS:  165097307  HIT:  165094017  MISS:       3290
L1I RFO       ACCESS:          0  HIT:          0  MISS:          0
L1I PREFETCH  ACCESS:          0  HIT:          0  MISS:          0
L1I WRITEBACK ACCESS:          0  HIT:          0  MISS:          0
L1I PREFETCH  REQUESTED:          0  ISSUED:          0  USEFUL:          0  USELESS:          0
L1I AVERAGE MISS LATENCY: 58.8675 cycles
L2C TOTAL     ACCESS:   10935775  HIT:    8670876  MISS:    2264899
L2C LOAD      ACCESS:    4623266  HIT:    2864587  MISS:    1758679
L2C RFO       ACCESS:    1661409  HIT:    1162591  MISS:     498818
L2C PREFETCH  ACCESS:          0  HIT:          0  MISS:          0
L2C WRITEBACK ACCESS:    4651100  HIT:    4643698  MISS:       7402
L2C PREFETCH  REQUESTED:          0  ISSUED:          0  USEFUL:          0  USELESS:          0
L2C AVERAGE MISS LATENCY: 150.342 cycles
LLC TOTAL     ACCESS:    3827944  HIT:    2362509  MISS:    1465435
LLC LOAD      ACCESS:    1758671  HIT:     969070  MISS:     789601
LLC RFO       ACCESS:     498810  HIT:     119825  MISS:     378985
LLC PREFETCH  ACCESS:          0  HIT:          0  MISS:          0
LLC WRITEBACK ACCESS:    1570463  HIT:    1273614  MISS:     296849
LLC PREFETCH  REQUESTED:          0  ISSUED:          0  USEFUL:          0  USELESS:          0
LLC AVERAGE MISS LATENCY: 168.558 cycles
Major fault: 0 Minor fault: 11705

DRAM Statistics
 CHANNEL 0
 RQ ROW_BUFFER_HIT:      97037  ROW_BUFFER_MISS:    1071547
 DBUS_CONGESTED:     245908
 WQ ROW_BUFFER_HIT:     112670  ROW_BUFFER_MISS:     751376  FULL:          0

 AVG_CONGESTED_CYCLE: 6

CPU 0 Branch Prediction Accuracy: 92.6995% MPKI: 10.9797 Average ROB Occupancy at Mispredict: 18.5828

Branch types
NOT_BRANCH: 849602978 84.9603%
BRANCH_DIRECT_JUMP: 6669032 0.666903%
BRANCH_INDIRECT: 1417678 0.141768%
BRANCH_CONDITIONAL: 140970714 14.0971%
BRANCH_DIRECT_CALL: 442832 0.0442832%
BRANCH_INDIRECT_CALL: 226828 0.0226828%
BRANCH_RETURN: 669661 0.0669661%
BRANCH_OTHER: 0 0%

