
*** ChampSim Multicore Out-of-Order Simulator ***

Warmup Instructions: 100000000
Simulation Instructions: 1000000000
Number of CPUs: 1
LLC sets: 2048
LLC ways: 16
Off-chip DRAM Size: 4096 MB Channels: 1 Width: 64-bit Data Rate: 3200 MT/s

CPU 0 runs /scratch/user/kevin.weston/dpc3-traces/657.champsimtrace.xz
CPU 0 Bimodal branch predictor
Per-line RRPV Initialized
PRRIP State Initialized
Assign SAMPLER_SET[0]: 454  LLC: 2048
SAMPLER_SET[0]: 454
Assign SAMPLER_SET[1]: 1662  LLC: 2048
SAMPLER_SET[1]: 1662
Assign SAMPLER_SET[2]: 1921  LLC: 2048
SAMPLER_SET[2]: 1921
Assign SAMPLER_SET[3]: 1131  LLC: 2048
SAMPLER_SET[3]: 1131
Assign SAMPLER_SET[4]: 331  LLC: 2048
SAMPLER_SET[4]: 331
Assign SAMPLER_SET[5]: 1531  LLC: 2048
SAMPLER_SET[5]: 1531
Assign SAMPLER_SET[6]: 482  LLC: 2048
SAMPLER_SET[6]: 482
Assign SAMPLER_SET[7]: 1275  LLC: 2048
SAMPLER_SET[7]: 1275
Assign SAMPLER_SET[8]: 1876  LLC: 2048
SAMPLER_SET[8]: 1876
Assign SAMPLER_SET[9]: 2038  LLC: 2048
SAMPLER_SET[9]: 2038
Assign SAMPLER_SET[10]: 701  LLC: 2048
SAMPLER_SET[10]: 701
Assign SAMPLER_SET[11]: 479  LLC: 2048
SAMPLER_SET[11]: 479
Assign SAMPLER_SET[12]: 892  LLC: 2048
SAMPLER_SET[12]: 892
Assign SAMPLER_SET[13]: 1820  LLC: 2048
SAMPLER_SET[13]: 1820
Assign SAMPLER_SET[14]: 1505  LLC: 2048
SAMPLER_SET[14]: 1505
Assign SAMPLER_SET[15]: 1159  LLC: 2048
SAMPLER_SET[15]: 1159
Assign SAMPLER_SET[16]: 513  LLC: 2048
SAMPLER_SET[16]: 513
Assign SAMPLER_SET[17]: 703  LLC: 2048
SAMPLER_SET[17]: 703
Assign SAMPLER_SET[18]: 561  LLC: 2048
SAMPLER_SET[18]: 561
Assign SAMPLER_SET[19]: 990  LLC: 2048
SAMPLER_SET[19]: 990
Assign SAMPLER_SET[20]: 342  LLC: 2048
SAMPLER_SET[20]: 342
Assign SAMPLER_SET[21]: 882  LLC: 2048
SAMPLER_SET[21]: 882
Assign SAMPLER_SET[22]: 15  LLC: 2048
SAMPLER_SET[22]: 15
Assign SAMPLER_SET[23]: 71  LLC: 2048
SAMPLER_SET[23]: 71
Assign SAMPLER_SET[24]: 1127  LLC: 2048
SAMPLER_SET[24]: 1127
Assign SAMPLER_SET[25]: 1382  LLC: 2048
SAMPLER_SET[25]: 1382
Assign SAMPLER_SET[26]: 647  LLC: 2048
SAMPLER_SET[26]: 647
Assign SAMPLER_SET[27]: 857  LLC: 2048
SAMPLER_SET[27]: 857
Assign SAMPLER_SET[28]: 1450  LLC: 2048
SAMPLER_SET[28]: 1450
Assign SAMPLER_SET[29]: 1160  LLC: 2048
SAMPLER_SET[29]: 1160
Assign SAMPLER_SET[30]: 1852  LLC: 2048
SAMPLER_SET[30]: 1852
Assign SAMPLER_SET[31]: 1881  LLC: 2048
SAMPLER_SET[31]: 1881
Assign SAMPLER_SET[32]: 1770  LLC: 2048
SAMPLER_SET[32]: 1770
Assign SAMPLER_SET[33]: 1622  LLC: 2048
SAMPLER_SET[33]: 1622
Assign SAMPLER_SET[34]: 275  LLC: 2048
SAMPLER_SET[34]: 275
Assign SAMPLER_SET[35]: 635  LLC: 2048
SAMPLER_SET[35]: 635
Assign SAMPLER_SET[36]: 466  LLC: 2048
SAMPLER_SET[36]: 466
Assign SAMPLER_SET[37]: 1413  LLC: 2048
SAMPLER_SET[37]: 1413
Assign SAMPLER_SET[38]: 417  LLC: 2048
SAMPLER_SET[38]: 417
Assign SAMPLER_SET[39]: 472  LLC: 2048
SAMPLER_SET[39]: 472
Assign SAMPLER_SET[40]: 1340  LLC: 2048
SAMPLER_SET[40]: 1340
Assign SAMPLER_SET[41]: 852  LLC: 2048
SAMPLER_SET[41]: 852
Assign SAMPLER_SET[42]: 1365  LLC: 2048
SAMPLER_SET[42]: 1365
Assign SAMPLER_SET[43]: 47  LLC: 2048
SAMPLER_SET[43]: 47
Assign SAMPLER_SET[44]: 823  LLC: 2048
SAMPLER_SET[44]: 823
Assign SAMPLER_SET[45]: 686  LLC: 2048
SAMPLER_SET[45]: 686
Assign SAMPLER_SET[46]: 1637  LLC: 2048
SAMPLER_SET[46]: 1637
Assign SAMPLER_SET[47]: 1115  LLC: 2048
SAMPLER_SET[47]: 1115
Assign SAMPLER_SET[48]: 986  LLC: 2048
SAMPLER_SET[48]: 986
Assign SAMPLER_SET[49]: 258  LLC: 2048
SAMPLER_SET[49]: 258
Assign SAMPLER_SET[50]: 633  LLC: 2048
SAMPLER_SET[50]: 633
Assign SAMPLER_SET[51]: 920  LLC: 2048
SAMPLER_SET[51]: 920
Assign SAMPLER_SET[52]: 204  LLC: 2048
SAMPLER_SET[52]: 204
Assign SAMPLER_SET[53]: 227  LLC: 2048
SAMPLER_SET[53]: 227
Assign SAMPLER_SET[54]: 1818  LLC: 2048
SAMPLER_SET[54]: 1818
Assign SAMPLER_SET[55]: 886  LLC: 2048
SAMPLER_SET[55]: 886
Assign SAMPLER_SET[56]: 1422  LLC: 2048
SAMPLER_SET[56]: 1422
Assign SAMPLER_SET[57]: 607  LLC: 2048
SAMPLER_SET[57]: 607
Assign SAMPLER_SET[58]: 217  LLC: 2048
SAMPLER_SET[58]: 217
Assign SAMPLER_SET[59]: 1945  LLC: 2048
SAMPLER_SET[59]: 1945
Assign SAMPLER_SET[60]: 143  LLC: 2048
SAMPLER_SET[60]: 143
Assign SAMPLER_SET[61]: 1311  LLC: 2048
SAMPLER_SET[61]: 1311
Assign SAMPLER_SET[62]: 319  LLC: 2048
SAMPLER_SET[62]: 319
Assign SAMPLER_SET[63]: 1846  LLC: 2048
SAMPLER_SET[63]: 1846
Heartbeat CPU 0 instructions: 10000003 cycles: 3242267 heartbeat IPC: 3.08426 cumulative IPC: 3.08426 (Simulation time: 0 hr 0 min 23 sec) 
Heartbeat CPU 0 instructions: 20000003 cycles: 6524221 heartbeat IPC: 3.04697 cumulative IPC: 3.0655 (Simulation time: 0 hr 0 min 45 sec) 
Heartbeat CPU 0 instructions: 30000001 cycles: 9797670 heartbeat IPC: 3.05488 cumulative IPC: 3.06195 (Simulation time: 0 hr 1 min 7 sec) 
Heartbeat CPU 0 instructions: 40000000 cycles: 13049268 heartbeat IPC: 3.07541 cumulative IPC: 3.06531 (Simulation time: 0 hr 1 min 29 sec) 
Heartbeat CPU 0 instructions: 50000001 cycles: 16302505 heartbeat IPC: 3.07386 cumulative IPC: 3.06701 (Simulation time: 0 hr 1 min 51 sec) 
Heartbeat CPU 0 instructions: 60000000 cycles: 19551672 heartbeat IPC: 3.07771 cumulative IPC: 3.06879 (Simulation time: 0 hr 2 min 13 sec) 
Heartbeat CPU 0 instructions: 70000000 cycles: 22783702 heartbeat IPC: 3.09403 cumulative IPC: 3.07237 (Simulation time: 0 hr 2 min 35 sec) 
Heartbeat CPU 0 instructions: 80000001 cycles: 26036058 heartbeat IPC: 3.07469 cumulative IPC: 3.07266 (Simulation time: 0 hr 2 min 57 sec) 
Heartbeat CPU 0 instructions: 90000002 cycles: 29321619 heartbeat IPC: 3.04362 cumulative IPC: 3.06941 (Simulation time: 0 hr 3 min 19 sec) 
Heartbeat CPU 0 instructions: 100000003 cycles: 32601466 heartbeat IPC: 3.04892 cumulative IPC: 3.06735 (Simulation time: 0 hr 3 min 41 sec) 

Warmup complete CPU 0 instructions: 100000003 cycles: 32601466 (Simulation time: 0 hr 3 min 41 sec) 

Heartbeat CPU 0 instructions: 110000000 cycles: 42338358 heartbeat IPC: 1.02702 cumulative IPC: 1.02702 (Simulation time: 0 hr 3 min 55 sec) 
Heartbeat CPU 0 instructions: 120000000 cycles: 51434632 heartbeat IPC: 1.09935 cumulative IPC: 1.06196 (Simulation time: 0 hr 4 min 9 sec) 
Heartbeat CPU 0 instructions: 130000003 cycles: 59702663 heartbeat IPC: 1.20948 cumulative IPC: 1.10696 (Simulation time: 0 hr 4 min 23 sec) 
Heartbeat CPU 0 instructions: 140000001 cycles: 68819754 heartbeat IPC: 1.09684 cumulative IPC: 1.10441 (Simulation time: 0 hr 4 min 36 sec) 
Heartbeat CPU 0 instructions: 150000000 cycles: 77071287 heartbeat IPC: 1.2119 cumulative IPC: 1.12436 (Simulation time: 0 hr 4 min 50 sec) 
Heartbeat CPU 0 instructions: 160000000 cycles: 85117368 heartbeat IPC: 1.24284 cumulative IPC: 1.14251 (Simulation time: 0 hr 5 min 3 sec) 
Heartbeat CPU 0 instructions: 170000001 cycles: 94759116 heartbeat IPC: 1.03716 cumulative IPC: 1.12617 (Simulation time: 0 hr 5 min 18 sec) 
Heartbeat CPU 0 instructions: 180000001 cycles: 106288857 heartbeat IPC: 0.867322 cumulative IPC: 1.08567 (Simulation time: 0 hr 5 min 33 sec) 
Heartbeat CPU 0 instructions: 190000000 cycles: 119369516 heartbeat IPC: 0.764487 cumulative IPC: 1.03725 (Simulation time: 0 hr 5 min 49 sec) 
Heartbeat CPU 0 instructions: 200000000 cycles: 131463958 heartbeat IPC: 0.826826 cumulative IPC: 1.01151 (Simulation time: 0 hr 6 min 5 sec) 
Heartbeat CPU 0 instructions: 210000001 cycles: 143301275 heartbeat IPC: 0.844786 cumulative IPC: 0.993678 (Simulation time: 0 hr 6 min 21 sec) 
Heartbeat CPU 0 instructions: 220000000 cycles: 154007492 heartbeat IPC: 0.934037 cumulative IPC: 0.988419 (Simulation time: 0 hr 6 min 36 sec) 
Heartbeat CPU 0 instructions: 230000002 cycles: 163993439 heartbeat IPC: 1.00141 cumulative IPC: 0.989406 (Simulation time: 0 hr 6 min 50 sec) 
Heartbeat CPU 0 instructions: 240000001 cycles: 173930283 heartbeat IPC: 1.00636 cumulative IPC: 0.990598 (Simulation time: 0 hr 7 min 4 sec) 
Heartbeat CPU 0 instructions: 250000003 cycles: 183180555 heartbeat IPC: 1.08105 cumulative IPC: 0.996154 (Simulation time: 0 hr 7 min 19 sec) 
Heartbeat CPU 0 instructions: 260000002 cycles: 191785061 heartbeat IPC: 1.16218 cumulative IPC: 1.00513 (Simulation time: 0 hr 7 min 33 sec) 
Heartbeat CPU 0 instructions: 270000000 cycles: 200076317 heartbeat IPC: 1.20609 cumulative IPC: 1.01508 (Simulation time: 0 hr 7 min 47 sec) 
Heartbeat CPU 0 instructions: 280000000 cycles: 211340131 heartbeat IPC: 0.887799 cumulative IPC: 1.00706 (Simulation time: 0 hr 8 min 2 sec) 
Heartbeat CPU 0 instructions: 290000002 cycles: 221166696 heartbeat IPC: 1.01765 cumulative IPC: 1.00761 (Simulation time: 0 hr 8 min 17 sec) 
Heartbeat CPU 0 instructions: 300000002 cycles: 230191458 heartbeat IPC: 1.10806 cumulative IPC: 1.0122 (Simulation time: 0 hr 8 min 31 sec) 
Heartbeat CPU 0 instructions: 310000001 cycles: 239044481 heartbeat IPC: 1.12956 cumulative IPC: 1.01723 (Simulation time: 0 hr 8 min 45 sec) 
Heartbeat CPU 0 instructions: 320000003 cycles: 248955840 heartbeat IPC: 1.00894 cumulative IPC: 1.01685 (Simulation time: 0 hr 9 min 1 sec) 
Heartbeat CPU 0 instructions: 330000000 cycles: 257788190 heartbeat IPC: 1.1322 cumulative IPC: 1.02137 (Simulation time: 0 hr 9 min 15 sec) 
Heartbeat CPU 0 instructions: 340000003 cycles: 267977107 heartbeat IPC: 0.981459 cumulative IPC: 1.01965 (Simulation time: 0 hr 9 min 29 sec) 
Heartbeat CPU 0 instructions: 350000001 cycles: 278866427 heartbeat IPC: 0.918331 cumulative IPC: 1.01517 (Simulation time: 0 hr 9 min 44 sec) 
Heartbeat CPU 0 instructions: 360000000 cycles: 289860355 heartbeat IPC: 0.909593 cumulative IPC: 1.01066 (Simulation time: 0 hr 10 min 0 sec) 
Heartbeat CPU 0 instructions: 370000002 cycles: 299816452 heartbeat IPC: 1.00441 cumulative IPC: 1.01042 (Simulation time: 0 hr 10 min 14 sec) 
Heartbeat CPU 0 instructions: 380000003 cycles: 309286474 heartbeat IPC: 1.05596 cumulative IPC: 1.01198 (Simulation time: 0 hr 10 min 28 sec) 
Heartbeat CPU 0 instructions: 390000002 cycles: 320299007 heartbeat IPC: 0.908056 cumulative IPC: 1.008 (Simulation time: 0 hr 10 min 43 sec) 
Heartbeat CPU 0 instructions: 400000000 cycles: 330867115 heartbeat IPC: 0.946243 cumulative IPC: 1.00581 (Simulation time: 0 hr 10 min 58 sec) 
Heartbeat CPU 0 instructions: 410000000 cycles: 341774818 heartbeat IPC: 0.916783 cumulative IPC: 1.00267 (Simulation time: 0 hr 11 min 14 sec) 
Heartbeat CPU 0 instructions: 420000000 cycles: 352946724 heartbeat IPC: 0.895102 cumulative IPC: 0.998922 (Simulation time: 0 hr 11 min 29 sec) 
Heartbeat CPU 0 instructions: 430000001 cycles: 362969721 heartbeat IPC: 0.997706 cumulative IPC: 0.998885 (Simulation time: 0 hr 11 min 44 sec) 
Heartbeat CPU 0 instructions: 440000000 cycles: 373076901 heartbeat IPC: 0.989396 cumulative IPC: 0.998604 (Simulation time: 0 hr 12 min 0 sec) 
Heartbeat CPU 0 instructions: 450000003 cycles: 383222005 heartbeat IPC: 0.985697 cumulative IPC: 0.99823 (Simulation time: 0 hr 12 min 16 sec) 
Heartbeat CPU 0 instructions: 460000003 cycles: 393147826 heartbeat IPC: 1.00747 cumulative IPC: 0.998485 (Simulation time: 0 hr 12 min 32 sec) 
Heartbeat CPU 0 instructions: 470000002 cycles: 403059329 heartbeat IPC: 1.00893 cumulative IPC: 0.998764 (Simulation time: 0 hr 12 min 46 sec) 
Heartbeat CPU 0 instructions: 480000001 cycles: 412411461 heartbeat IPC: 1.06927 cumulative IPC: 1.0005 (Simulation time: 0 hr 13 min 0 sec) 
Heartbeat CPU 0 instructions: 490000001 cycles: 421499621 heartbeat IPC: 1.10033 cumulative IPC: 1.00283 (Simulation time: 0 hr 13 min 15 sec) 
Heartbeat CPU 0 instructions: 500000002 cycles: 431165619 heartbeat IPC: 1.03455 cumulative IPC: 1.0036 (Simulation time: 0 hr 13 min 29 sec) 
Heartbeat CPU 0 instructions: 510000000 cycles: 444194791 heartbeat IPC: 0.767508 cumulative IPC: 0.996129 (Simulation time: 0 hr 13 min 47 sec) 
Heartbeat CPU 0 instructions: 520000002 cycles: 453867345 heartbeat IPC: 1.03385 cumulative IPC: 0.996995 (Simulation time: 0 hr 14 min 3 sec) 
Heartbeat CPU 0 instructions: 530000001 cycles: 463515625 heartbeat IPC: 1.03645 cumulative IPC: 0.997879 (Simulation time: 0 hr 14 min 18 sec) 
Heartbeat CPU 0 instructions: 540000000 cycles: 472921934 heartbeat IPC: 1.06312 cumulative IPC: 0.999272 (Simulation time: 0 hr 14 min 32 sec) 
Heartbeat CPU 0 instructions: 550000000 cycles: 485023398 heartbeat IPC: 0.826346 cumulative IPC: 0.994647 (Simulation time: 0 hr 14 min 48 sec) 
Heartbeat CPU 0 instructions: 560000002 cycles: 494967693 heartbeat IPC: 1.0056 cumulative IPC: 0.994882 (Simulation time: 0 hr 15 min 3 sec) 
Heartbeat CPU 0 instructions: 570000003 cycles: 505151435 heartbeat IPC: 0.981957 cumulative IPC: 0.994604 (Simulation time: 0 hr 15 min 18 sec) 
Heartbeat CPU 0 instructions: 580000002 cycles: 514981170 heartbeat IPC: 1.01732 cumulative IPC: 0.995067 (Simulation time: 0 hr 15 min 32 sec) 
Heartbeat CPU 0 instructions: 590000000 cycles: 524952904 heartbeat IPC: 1.00283 cumulative IPC: 0.995224 (Simulation time: 0 hr 15 min 47 sec) 
Heartbeat CPU 0 instructions: 600000002 cycles: 535146925 heartbeat IPC: 0.980967 cumulative IPC: 0.994935 (Simulation time: 0 hr 16 min 2 sec) 
Heartbeat CPU 0 instructions: 610000003 cycles: 545231037 heartbeat IPC: 0.991659 cumulative IPC: 0.99487 (Simulation time: 0 hr 16 min 16 sec) 
Heartbeat CPU 0 instructions: 620000000 cycles: 554707025 heartbeat IPC: 1.0553 cumulative IPC: 0.995967 (Simulation time: 0 hr 16 min 30 sec) 
Heartbeat CPU 0 instructions: 630000000 cycles: 564566506 heartbeat IPC: 1.01425 cumulative IPC: 0.996306 (Simulation time: 0 hr 16 min 45 sec) 
Heartbeat CPU 0 instructions: 640000003 cycles: 574599348 heartbeat IPC: 0.996727 cumulative IPC: 0.996314 (Simulation time: 0 hr 17 min 0 sec) 
Heartbeat CPU 0 instructions: 650000001 cycles: 583935099 heartbeat IPC: 1.07115 cumulative IPC: 0.997581 (Simulation time: 0 hr 17 min 14 sec) 
Heartbeat CPU 0 instructions: 660000000 cycles: 593941290 heartbeat IPC: 0.999381 cumulative IPC: 0.997613 (Simulation time: 0 hr 17 min 29 sec) 
Heartbeat CPU 0 instructions: 670000000 cycles: 604125122 heartbeat IPC: 0.981949 cumulative IPC: 0.997334 (Simulation time: 0 hr 17 min 43 sec) 
Heartbeat CPU 0 instructions: 680000003 cycles: 613350088 heartbeat IPC: 1.08402 cumulative IPC: 0.998711 (Simulation time: 0 hr 17 min 58 sec) 
Heartbeat CPU 0 instructions: 690000001 cycles: 623954676 heartbeat IPC: 0.942988 cumulative IPC: 0.997712 (Simulation time: 0 hr 18 min 13 sec) 
Heartbeat CPU 0 instructions: 700000001 cycles: 633690656 heartbeat IPC: 1.02712 cumulative IPC: 0.998188 (Simulation time: 0 hr 18 min 28 sec) 
Heartbeat CPU 0 instructions: 710000001 cycles: 643863321 heartbeat IPC: 0.983027 cumulative IPC: 0.997936 (Simulation time: 0 hr 18 min 44 sec) 
Heartbeat CPU 0 instructions: 720000001 cycles: 653895675 heartbeat IPC: 0.996775 cumulative IPC: 0.997917 (Simulation time: 0 hr 19 min 0 sec) 
Heartbeat CPU 0 instructions: 730000003 cycles: 663480838 heartbeat IPC: 1.04328 cumulative IPC: 0.998606 (Simulation time: 0 hr 19 min 15 sec) 
Heartbeat CPU 0 instructions: 740000001 cycles: 673392239 heartbeat IPC: 1.00894 cumulative IPC: 0.998766 (Simulation time: 0 hr 19 min 30 sec) 
Heartbeat CPU 0 instructions: 750000000 cycles: 681905300 heartbeat IPC: 1.17467 cumulative IPC: 1.00107 (Simulation time: 0 hr 19 min 44 sec) 
Heartbeat CPU 0 instructions: 760000000 cycles: 690036564 heartbeat IPC: 1.22982 cumulative IPC: 1.0039 (Simulation time: 0 hr 19 min 57 sec) 
Heartbeat CPU 0 instructions: 770000000 cycles: 698223297 heartbeat IPC: 1.22149 cumulative IPC: 1.00658 (Simulation time: 0 hr 20 min 10 sec) 
Heartbeat CPU 0 instructions: 780000001 cycles: 706270251 heartbeat IPC: 1.24271 cumulative IPC: 1.0094 (Simulation time: 0 hr 20 min 23 sec) 
Heartbeat CPU 0 instructions: 790000000 cycles: 714463532 heartbeat IPC: 1.22051 cumulative IPC: 1.01193 (Simulation time: 0 hr 20 min 36 sec) 
Heartbeat CPU 0 instructions: 800000001 cycles: 722639355 heartbeat IPC: 1.22312 cumulative IPC: 1.01444 (Simulation time: 0 hr 20 min 50 sec) 
Heartbeat CPU 0 instructions: 810000000 cycles: 730805022 heartbeat IPC: 1.22464 cumulative IPC: 1.0169 (Simulation time: 0 hr 21 min 3 sec) 
Heartbeat CPU 0 instructions: 820000001 cycles: 738870458 heartbeat IPC: 1.23986 cumulative IPC: 1.01944 (Simulation time: 0 hr 21 min 16 sec) 
Heartbeat CPU 0 instructions: 830000000 cycles: 747152633 heartbeat IPC: 1.20741 cumulative IPC: 1.02162 (Simulation time: 0 hr 21 min 29 sec) 
Heartbeat CPU 0 instructions: 840000002 cycles: 755158615 heartbeat IPC: 1.24907 cumulative IPC: 1.02414 (Simulation time: 0 hr 21 min 42 sec) 
Heartbeat CPU 0 instructions: 850000003 cycles: 763421475 heartbeat IPC: 1.21023 cumulative IPC: 1.02624 (Simulation time: 0 hr 21 min 56 sec) 
Heartbeat CPU 0 instructions: 860000003 cycles: 771534705 heartbeat IPC: 1.23255 cumulative IPC: 1.02851 (Simulation time: 0 hr 22 min 9 sec) 
Heartbeat CPU 0 instructions: 870000002 cycles: 779770362 heartbeat IPC: 1.21423 cumulative IPC: 1.03056 (Simulation time: 0 hr 22 min 22 sec) 
Heartbeat CPU 0 instructions: 880000000 cycles: 787837624 heartbeat IPC: 1.23958 cumulative IPC: 1.03279 (Simulation time: 0 hr 22 min 35 sec) 
Heartbeat CPU 0 instructions: 890000003 cycles: 795917469 heartbeat IPC: 1.23765 cumulative IPC: 1.03496 (Simulation time: 0 hr 22 min 48 sec) 
Heartbeat CPU 0 instructions: 900000000 cycles: 804098828 heartbeat IPC: 1.22229 cumulative IPC: 1.03694 (Simulation time: 0 hr 23 min 1 sec) 
Heartbeat CPU 0 instructions: 910000002 cycles: 812290919 heartbeat IPC: 1.22069 cumulative IPC: 1.03888 (Simulation time: 0 hr 23 min 14 sec) 
Heartbeat CPU 0 instructions: 920000001 cycles: 820504122 heartbeat IPC: 1.21755 cumulative IPC: 1.04074 (Simulation time: 0 hr 23 min 27 sec) 
Heartbeat CPU 0 instructions: 930000001 cycles: 829975466 heartbeat IPC: 1.05582 cumulative IPC: 1.04092 (Simulation time: 0 hr 23 min 41 sec) 
Heartbeat CPU 0 instructions: 940000000 cycles: 840364756 heartbeat IPC: 0.96253 cumulative IPC: 1.03991 (Simulation time: 0 hr 23 min 56 sec) 
Heartbeat CPU 0 instructions: 950000000 cycles: 851796429 heartbeat IPC: 0.874763 cumulative IPC: 1.0376 (Simulation time: 0 hr 24 min 11 sec) 
Heartbeat CPU 0 instructions: 960000002 cycles: 860733696 heartbeat IPC: 1.11891 cumulative IPC: 1.03848 (Simulation time: 0 hr 24 min 24 sec) 
Heartbeat CPU 0 instructions: 970000002 cycles: 870236890 heartbeat IPC: 1.05228 cumulative IPC: 1.03864 (Simulation time: 0 hr 24 min 38 sec) 
Heartbeat CPU 0 instructions: 980000000 cycles: 882314063 heartbeat IPC: 0.828008 cumulative IPC: 1.03564 (Simulation time: 0 hr 24 min 53 sec) 
Heartbeat CPU 0 instructions: 990000000 cycles: 894869926 heartbeat IPC: 0.796441 cumulative IPC: 1.03216 (Simulation time: 0 hr 25 min 9 sec) 
Heartbeat CPU 0 instructions: 1000000002 cycles: 904899450 heartbeat IPC: 0.997056 cumulative IPC: 1.03176 (Simulation time: 0 hr 25 min 23 sec) 
Heartbeat CPU 0 instructions: 1010000003 cycles: 914343318 heartbeat IPC: 1.05889 cumulative IPC: 1.03205 (Simulation time: 0 hr 25 min 37 sec) 
Heartbeat CPU 0 instructions: 1020000000 cycles: 927228741 heartbeat IPC: 0.776071 cumulative IPC: 1.02836 (Simulation time: 0 hr 25 min 52 sec) 
Heartbeat CPU 0 instructions: 1030000002 cycles: 941583264 heartbeat IPC: 0.696645 cumulative IPC: 1.02312 (Simulation time: 0 hr 26 min 9 sec) 
Heartbeat CPU 0 instructions: 1040000003 cycles: 957116758 heartbeat IPC: 0.64377 cumulative IPC: 1.01675 (Simulation time: 0 hr 26 min 25 sec) 
Heartbeat CPU 0 instructions: 1050000000 cycles: 971170749 heartbeat IPC: 0.711541 cumulative IPC: 1.01218 (Simulation time: 0 hr 26 min 41 sec) 
Heartbeat CPU 0 instructions: 1060000002 cycles: 983175468 heartbeat IPC: 0.833006 cumulative IPC: 1.00992 (Simulation time: 0 hr 26 min 57 sec) 
Heartbeat CPU 0 instructions: 1070000001 cycles: 992615254 heartbeat IPC: 1.05935 cumulative IPC: 1.0104 (Simulation time: 0 hr 27 min 10 sec) 
Heartbeat CPU 0 instructions: 1080000002 cycles: 1001370856 heartbeat IPC: 1.14213 cumulative IPC: 1.01159 (Simulation time: 0 hr 27 min 24 sec) 
Heartbeat CPU 0 instructions: 1090000001 cycles: 1012902379 heartbeat IPC: 0.867188 cumulative IPC: 1.00989 (Simulation time: 0 hr 27 min 39 sec) 
Heartbeat CPU 0 instructions: 1100000000 cycles: 1024211009 heartbeat IPC: 0.88428 cumulative IPC: 1.00846 (Simulation time: 0 hr 27 min 54 sec) 
Finished CPU 0 instructions: 1000000002 cycles: 991609553 cumulative IPC: 1.00846 (Simulation time: 0 hr 27 min 54 sec) 

ChampSim completed all CPUs

Region of Interest Statistics

CPU 0 cumulative IPC: 1.00846 instructions: 1000000002 cycles: 991609553
L1D TOTAL     ACCESS:  243979013  HIT:  237696258  MISS:    6282755
L1D LOAD      ACCESS:  180500987  HIT:  175880856  MISS:    4620131
L1D RFO       ACCESS:   63478026  HIT:   61815402  MISS:    1662624
L1D PREFETCH  ACCESS:          0  HIT:          0  MISS:          0
L1D WRITEBACK ACCESS:          0  HIT:          0  MISS:          0
L1D PREFETCH  REQUESTED:          0  ISSUED:          0  USEFUL:          0  USELESS:          0
L1D AVERAGE MISS LATENCY: 66.9751 cycles
L1I TOTAL     ACCESS:  165101023  HIT:  165097733  MISS:       3290
L1I LOAD      ACCESS:  165101023  HIT:  165097733  MISS:       3290
L1I RFO       ACCESS:          0  HIT:          0  MISS:          0
L1I PREFETCH  ACCESS:          0  HIT:          0  MISS:          0
L1I WRITEBACK ACCESS:          0  HIT:          0  MISS:          0
L1I PREFETCH  REQUESTED:          0  ISSUED:          0  USEFUL:          0  USELESS:          0
L1I AVERAGE MISS LATENCY: 58.6723 cycles
L2C TOTAL     ACCESS:   10935814  HIT:    8669783  MISS:    2266031
L2C LOAD      ACCESS:    4623269  HIT:    2863204  MISS:    1760065
L2C RFO       ACCESS:    1661423  HIT:    1161984  MISS:     499439
L2C PREFETCH  ACCESS:          0  HIT:          0  MISS:          0
L2C WRITEBACK ACCESS:    4651122  HIT:    4644595  MISS:       6527
L2C PREFETCH  REQUESTED:          0  ISSUED:          0  USEFUL:          0  USELESS:          0
L2C AVERAGE MISS LATENCY: 149.385 cycles
LLC TOTAL     ACCESS:    3828920  HIT:    2087310  MISS:    1741610
LLC LOAD      ACCESS:    1760050  HIT:     916574  MISS:     843476
LLC RFO       ACCESS:     499434  HIT:     129091  MISS:     370343
LLC PREFETCH  ACCESS:          0  HIT:          0  MISS:          0
LLC WRITEBACK ACCESS:    1569436  HIT:    1041645  MISS:     527791
LLC PREFETCH  REQUESTED:          0  ISSUED:          0  USEFUL:          0  USELESS:          0
LLC AVERAGE MISS LATENCY: 140.677 cycles
Major fault: 0 Minor fault: 11705
==============================
Perceptron RRIP Stats:
   Num Updates:          93874
   Num Primary Trains:   8658
   Num Secondary Trains: 8629
==============================
primary_perceptron #0: -6 -2 4 2 2 0 0 2 0 -4 -2 2 0 -4 6 -10 
secondary_perceptron #0: -7 -3 3 3 3 3 1 5 -1 -7 -3 3 1 -3 7 -1 1 3 -1 1 -11 


DRAM Statistics
 CHANNEL 0
 RQ ROW_BUFFER_HIT:     105437  ROW_BUFFER_MISS:    1108366
 DBUS_CONGESTED:     238881
 WQ ROW_BUFFER_HIT:     127490  ROW_BUFFER_MISS:     763205  FULL:      17944

 AVG_CONGESTED_CYCLE: 6

CPU 0 Branch Prediction Accuracy: 92.6995% MPKI: 10.9797 Average ROB Occupancy at Mispredict: 18.8613

Branch types
NOT_BRANCH: 849602978 84.9603%
BRANCH_DIRECT_JUMP: 6669032 0.666903%
BRANCH_INDIRECT: 1417678 0.141768%
BRANCH_CONDITIONAL: 140970714 14.0971%
BRANCH_DIRECT_CALL: 442832 0.0442832%
BRANCH_INDIRECT_CALL: 226828 0.0226828%
BRANCH_RETURN: 669661 0.0669661%
BRANCH_OTHER: 0 0%

