
*** ChampSim Multicore Out-of-Order Simulator ***

Warmup Instructions: 100000000
Simulation Instructions: 1000000000
Number of CPUs: 1
LLC sets: 2048
LLC ways: 16
Off-chip DRAM Size: 4096 MB Channels: 1 Width: 64-bit Data Rate: 3200 MT/s

CPU 0 runs /scratch/user/kevin.weston/dpc3-traces/657.champsimtrace.xz
CPU 0 Bimodal branch predictor
Initialize SRRIP state
Heartbeat CPU 0 instructions: 10000003 cycles: 3242289 heartbeat IPC: 3.08424 cumulative IPC: 3.08424 (Simulation time: 0 hr 0 min 21 sec) 
Heartbeat CPU 0 instructions: 20000003 cycles: 6524220 heartbeat IPC: 3.04699 cumulative IPC: 3.0655 (Simulation time: 0 hr 0 min 42 sec) 
Heartbeat CPU 0 instructions: 30000001 cycles: 9797698 heartbeat IPC: 3.05485 cumulative IPC: 3.06194 (Simulation time: 0 hr 1 min 3 sec) 
Heartbeat CPU 0 instructions: 40000000 cycles: 13049280 heartbeat IPC: 3.07543 cumulative IPC: 3.0653 (Simulation time: 0 hr 1 min 24 sec) 
Heartbeat CPU 0 instructions: 50000001 cycles: 16302508 heartbeat IPC: 3.07387 cumulative IPC: 3.06701 (Simulation time: 0 hr 1 min 44 sec) 
Heartbeat CPU 0 instructions: 60000000 cycles: 19551695 heartbeat IPC: 3.07769 cumulative IPC: 3.06879 (Simulation time: 0 hr 2 min 5 sec) 
Heartbeat CPU 0 instructions: 70000000 cycles: 22783720 heartbeat IPC: 3.09404 cumulative IPC: 3.07237 (Simulation time: 0 hr 2 min 25 sec) 
Heartbeat CPU 0 instructions: 80000001 cycles: 26036074 heartbeat IPC: 3.0747 cumulative IPC: 3.07266 (Simulation time: 0 hr 2 min 46 sec) 
Heartbeat CPU 0 instructions: 90000002 cycles: 29321685 heartbeat IPC: 3.04357 cumulative IPC: 3.0694 (Simulation time: 0 hr 3 min 7 sec) 
Heartbeat CPU 0 instructions: 100000003 cycles: 32601550 heartbeat IPC: 3.04891 cumulative IPC: 3.06734 (Simulation time: 0 hr 3 min 28 sec) 

Warmup complete CPU 0 instructions: 100000003 cycles: 32601550 (Simulation time: 0 hr 3 min 28 sec) 

Heartbeat CPU 0 instructions: 110000000 cycles: 42302116 heartbeat IPC: 1.03087 cumulative IPC: 1.03087 (Simulation time: 0 hr 3 min 41 sec) 
Heartbeat CPU 0 instructions: 120000000 cycles: 51314140 heartbeat IPC: 1.10963 cumulative IPC: 1.0688 (Simulation time: 0 hr 3 min 53 sec) 
Heartbeat CPU 0 instructions: 130000003 cycles: 59507420 heartbeat IPC: 1.22051 cumulative IPC: 1.115 (Simulation time: 0 hr 4 min 5 sec) 
Heartbeat CPU 0 instructions: 140000001 cycles: 68657086 heartbeat IPC: 1.09294 cumulative IPC: 1.1094 (Simulation time: 0 hr 4 min 18 sec) 
Heartbeat CPU 0 instructions: 150000000 cycles: 76905113 heartbeat IPC: 1.21241 cumulative IPC: 1.12858 (Simulation time: 0 hr 4 min 31 sec) 
Heartbeat CPU 0 instructions: 160000000 cycles: 84925885 heartbeat IPC: 1.24676 cumulative IPC: 1.14669 (Simulation time: 0 hr 4 min 43 sec) 
Heartbeat CPU 0 instructions: 170000001 cycles: 94646221 heartbeat IPC: 1.02877 cumulative IPC: 1.12822 (Simulation time: 0 hr 4 min 56 sec) 
Heartbeat CPU 0 instructions: 180000001 cycles: 106131249 heartbeat IPC: 0.870699 cumulative IPC: 1.088 (Simulation time: 0 hr 5 min 9 sec) 
Heartbeat CPU 0 instructions: 190000000 cycles: 119084666 heartbeat IPC: 0.771997 cumulative IPC: 1.04067 (Simulation time: 0 hr 5 min 24 sec) 
Heartbeat CPU 0 instructions: 200000000 cycles: 131027590 heartbeat IPC: 0.837316 cumulative IPC: 1.01599 (Simulation time: 0 hr 5 min 39 sec) 
Heartbeat CPU 0 instructions: 210000001 cycles: 142735939 heartbeat IPC: 0.854091 cumulative IPC: 0.99878 (Simulation time: 0 hr 5 min 53 sec) 
Heartbeat CPU 0 instructions: 220000000 cycles: 153434764 heartbeat IPC: 0.934682 cumulative IPC: 0.993104 (Simulation time: 0 hr 6 min 7 sec) 
Heartbeat CPU 0 instructions: 230000002 cycles: 163319879 heartbeat IPC: 1.01162 cumulative IPC: 0.994505 (Simulation time: 0 hr 6 min 20 sec) 
Heartbeat CPU 0 instructions: 240000001 cycles: 173112673 heartbeat IPC: 1.02116 cumulative IPC: 0.996362 (Simulation time: 0 hr 6 min 33 sec) 
Heartbeat CPU 0 instructions: 250000003 cycles: 182192973 heartbeat IPC: 1.10129 cumulative IPC: 1.00273 (Simulation time: 0 hr 6 min 46 sec) 
Heartbeat CPU 0 instructions: 260000002 cycles: 190565569 heartbeat IPC: 1.19437 cumulative IPC: 1.01289 (Simulation time: 0 hr 6 min 59 sec) 
Heartbeat CPU 0 instructions: 270000000 cycles: 198677879 heartbeat IPC: 1.23269 cumulative IPC: 1.02363 (Simulation time: 0 hr 7 min 11 sec) 
Heartbeat CPU 0 instructions: 280000000 cycles: 210061048 heartbeat IPC: 0.87849 cumulative IPC: 1.01432 (Simulation time: 0 hr 7 min 24 sec) 
Heartbeat CPU 0 instructions: 290000002 cycles: 219961871 heartbeat IPC: 1.01002 cumulative IPC: 1.01409 (Simulation time: 0 hr 7 min 37 sec) 
Heartbeat CPU 0 instructions: 300000002 cycles: 228952107 heartbeat IPC: 1.11232 cumulative IPC: 1.01859 (Simulation time: 0 hr 7 min 50 sec) 
Heartbeat CPU 0 instructions: 310000001 cycles: 237719207 heartbeat IPC: 1.14063 cumulative IPC: 1.0238 (Simulation time: 0 hr 8 min 3 sec) 
Heartbeat CPU 0 instructions: 320000003 cycles: 247448463 heartbeat IPC: 1.02783 cumulative IPC: 1.02398 (Simulation time: 0 hr 8 min 17 sec) 
Heartbeat CPU 0 instructions: 330000000 cycles: 256200541 heartbeat IPC: 1.14259 cumulative IPC: 1.02863 (Simulation time: 0 hr 8 min 29 sec) 
Heartbeat CPU 0 instructions: 340000003 cycles: 266340671 heartbeat IPC: 0.986181 cumulative IPC: 1.02679 (Simulation time: 0 hr 8 min 43 sec) 
Heartbeat CPU 0 instructions: 350000001 cycles: 277084030 heartbeat IPC: 0.930807 cumulative IPC: 1.02257 (Simulation time: 0 hr 8 min 56 sec) 
Heartbeat CPU 0 instructions: 360000000 cycles: 287939803 heartbeat IPC: 0.921169 cumulative IPC: 1.01826 (Simulation time: 0 hr 9 min 10 sec) 
Heartbeat CPU 0 instructions: 370000002 cycles: 297801222 heartbeat IPC: 1.01405 cumulative IPC: 1.0181 (Simulation time: 0 hr 9 min 23 sec) 
Heartbeat CPU 0 instructions: 380000003 cycles: 307192610 heartbeat IPC: 1.06481 cumulative IPC: 1.0197 (Simulation time: 0 hr 9 min 36 sec) 
Heartbeat CPU 0 instructions: 390000002 cycles: 318237486 heartbeat IPC: 0.905397 cumulative IPC: 1.01528 (Simulation time: 0 hr 9 min 50 sec) 
Heartbeat CPU 0 instructions: 400000000 cycles: 328782691 heartbeat IPC: 0.948298 cumulative IPC: 1.01289 (Simulation time: 0 hr 10 min 3 sec) 
Heartbeat CPU 0 instructions: 410000000 cycles: 339665605 heartbeat IPC: 0.918872 cumulative IPC: 1.00956 (Simulation time: 0 hr 10 min 17 sec) 
Heartbeat CPU 0 instructions: 420000000 cycles: 350835819 heartbeat IPC: 0.895238 cumulative IPC: 1.00555 (Simulation time: 0 hr 10 min 31 sec) 
Heartbeat CPU 0 instructions: 430000001 cycles: 360807222 heartbeat IPC: 1.00287 cumulative IPC: 1.00547 (Simulation time: 0 hr 10 min 45 sec) 
Heartbeat CPU 0 instructions: 440000000 cycles: 370690955 heartbeat IPC: 1.01176 cumulative IPC: 1.00565 (Simulation time: 0 hr 10 min 59 sec) 
Heartbeat CPU 0 instructions: 450000003 cycles: 380548295 heartbeat IPC: 1.01447 cumulative IPC: 1.0059 (Simulation time: 0 hr 11 min 14 sec) 
Heartbeat CPU 0 instructions: 460000003 cycles: 390211442 heartbeat IPC: 1.03486 cumulative IPC: 1.00668 (Simulation time: 0 hr 11 min 28 sec) 
Heartbeat CPU 0 instructions: 470000002 cycles: 400129302 heartbeat IPC: 1.00828 cumulative IPC: 1.00673 (Simulation time: 0 hr 11 min 42 sec) 
Heartbeat CPU 0 instructions: 480000001 cycles: 409401276 heartbeat IPC: 1.07852 cumulative IPC: 1.00849 (Simulation time: 0 hr 11 min 55 sec) 
Heartbeat CPU 0 instructions: 490000002 cycles: 418428735 heartbeat IPC: 1.10773 cumulative IPC: 1.01082 (Simulation time: 0 hr 12 min 8 sec) 
Heartbeat CPU 0 instructions: 500000002 cycles: 428075926 heartbeat IPC: 1.03657 cumulative IPC: 1.01144 (Simulation time: 0 hr 12 min 21 sec) 
Heartbeat CPU 0 instructions: 510000000 cycles: 441852373 heartbeat IPC: 0.725876 cumulative IPC: 1.00183 (Simulation time: 0 hr 12 min 39 sec) 
Heartbeat CPU 0 instructions: 520000002 cycles: 451691173 heartbeat IPC: 1.01638 cumulative IPC: 1.00217 (Simulation time: 0 hr 12 min 53 sec) 
Heartbeat CPU 0 instructions: 530000001 cycles: 461223915 heartbeat IPC: 1.04902 cumulative IPC: 1.00321 (Simulation time: 0 hr 13 min 6 sec) 
Heartbeat CPU 0 instructions: 540000000 cycles: 470456895 heartbeat IPC: 1.08307 cumulative IPC: 1.0049 (Simulation time: 0 hr 13 min 19 sec) 
Heartbeat CPU 0 instructions: 550000000 cycles: 482297312 heartbeat IPC: 0.844565 cumulative IPC: 1.00068 (Simulation time: 0 hr 13 min 33 sec) 
Heartbeat CPU 0 instructions: 560000002 cycles: 491941880 heartbeat IPC: 1.03685 cumulative IPC: 1.00144 (Simulation time: 0 hr 13 min 47 sec) 
Heartbeat CPU 0 instructions: 570000003 cycles: 501688109 heartbeat IPC: 1.02604 cumulative IPC: 1.00195 (Simulation time: 0 hr 14 min 0 sec) 
Heartbeat CPU 0 instructions: 580000002 cycles: 511345481 heartbeat IPC: 1.03548 cumulative IPC: 1.00262 (Simulation time: 0 hr 14 min 13 sec) 
Heartbeat CPU 0 instructions: 590000000 cycles: 521091443 heartbeat IPC: 1.02607 cumulative IPC: 1.00309 (Simulation time: 0 hr 14 min 26 sec) 
Heartbeat CPU 0 instructions: 600000002 cycles: 531072717 heartbeat IPC: 1.00188 cumulative IPC: 1.00307 (Simulation time: 0 hr 14 min 40 sec) 
Heartbeat CPU 0 instructions: 610000003 cycles: 541014491 heartbeat IPC: 1.00586 cumulative IPC: 1.00312 (Simulation time: 0 hr 14 min 53 sec) 
Heartbeat CPU 0 instructions: 620000000 cycles: 550388158 heartbeat IPC: 1.06682 cumulative IPC: 1.00427 (Simulation time: 0 hr 15 min 6 sec) 
Heartbeat CPU 0 instructions: 630000000 cycles: 560145116 heartbeat IPC: 1.02491 cumulative IPC: 1.00466 (Simulation time: 0 hr 15 min 20 sec) 
Heartbeat CPU 0 instructions: 640000003 cycles: 569993478 heartbeat IPC: 1.0154 cumulative IPC: 1.00485 (Simulation time: 0 hr 15 min 33 sec) 
Heartbeat CPU 0 instructions: 650000001 cycles: 579008865 heartbeat IPC: 1.10921 cumulative IPC: 1.00658 (Simulation time: 0 hr 15 min 45 sec) 
Heartbeat CPU 0 instructions: 660000000 cycles: 588867332 heartbeat IPC: 1.01436 cumulative IPC: 1.00671 (Simulation time: 0 hr 15 min 58 sec) 
Heartbeat CPU 0 instructions: 670000000 cycles: 598841421 heartbeat IPC: 1.0026 cumulative IPC: 1.00664 (Simulation time: 0 hr 16 min 11 sec) 
Heartbeat CPU 0 instructions: 680000003 cycles: 608056913 heartbeat IPC: 1.08513 cumulative IPC: 1.0079 (Simulation time: 0 hr 16 min 24 sec) 
Heartbeat CPU 0 instructions: 690000001 cycles: 618588098 heartbeat IPC: 0.949561 cumulative IPC: 1.00685 (Simulation time: 0 hr 16 min 38 sec) 
Heartbeat CPU 0 instructions: 700000001 cycles: 628093390 heartbeat IPC: 1.05205 cumulative IPC: 1.00757 (Simulation time: 0 hr 16 min 52 sec) 
Heartbeat CPU 0 instructions: 710000001 cycles: 637951029 heartbeat IPC: 1.01444 cumulative IPC: 1.00768 (Simulation time: 0 hr 17 min 6 sec) 
Heartbeat CPU 0 instructions: 720000001 cycles: 647738877 heartbeat IPC: 1.02167 cumulative IPC: 1.00791 (Simulation time: 0 hr 17 min 20 sec) 
Heartbeat CPU 0 instructions: 730000003 cycles: 657011181 heartbeat IPC: 1.07848 cumulative IPC: 1.00895 (Simulation time: 0 hr 17 min 33 sec) 
Heartbeat CPU 0 instructions: 740000001 cycles: 666698007 heartbeat IPC: 1.03233 cumulative IPC: 1.00931 (Simulation time: 0 hr 17 min 47 sec) 
Heartbeat CPU 0 instructions: 750000000 cycles: 675103225 heartbeat IPC: 1.18974 cumulative IPC: 1.01167 (Simulation time: 0 hr 18 min 0 sec) 
Heartbeat CPU 0 instructions: 760000000 cycles: 683168975 heartbeat IPC: 1.23981 cumulative IPC: 1.0145 (Simulation time: 0 hr 18 min 12 sec) 
Heartbeat CPU 0 instructions: 770000000 cycles: 691295955 heartbeat IPC: 1.23047 cumulative IPC: 1.01716 (Simulation time: 0 hr 18 min 24 sec) 
Heartbeat CPU 0 instructions: 780000001 cycles: 699276910 heartbeat IPC: 1.25298 cumulative IPC: 1.01999 (Simulation time: 0 hr 18 min 36 sec) 
Heartbeat CPU 0 instructions: 790000000 cycles: 707417250 heartbeat IPC: 1.22845 cumulative IPC: 1.0225 (Simulation time: 0 hr 18 min 48 sec) 
Heartbeat CPU 0 instructions: 800000001 cycles: 715575661 heartbeat IPC: 1.22573 cumulative IPC: 1.02493 (Simulation time: 0 hr 19 min 1 sec) 
Heartbeat CPU 0 instructions: 810000000 cycles: 723735136 heartbeat IPC: 1.22557 cumulative IPC: 1.0273 (Simulation time: 0 hr 19 min 13 sec) 
Heartbeat CPU 0 instructions: 820000001 cycles: 731812377 heartbeat IPC: 1.23805 cumulative IPC: 1.02973 (Simulation time: 0 hr 19 min 25 sec) 
Heartbeat CPU 0 instructions: 830000000 cycles: 740134215 heartbeat IPC: 1.20166 cumulative IPC: 1.03175 (Simulation time: 0 hr 19 min 37 sec) 
Heartbeat CPU 0 instructions: 840000002 cycles: 748129783 heartbeat IPC: 1.25069 cumulative IPC: 1.0342 (Simulation time: 0 hr 19 min 49 sec) 
Heartbeat CPU 0 instructions: 850000003 cycles: 756438321 heartbeat IPC: 1.20358 cumulative IPC: 1.03615 (Simulation time: 0 hr 20 min 2 sec) 
Heartbeat CPU 0 instructions: 860000003 cycles: 764582926 heartbeat IPC: 1.22781 cumulative IPC: 1.03828 (Simulation time: 0 hr 20 min 14 sec) 
Heartbeat CPU 0 instructions: 870000002 cycles: 772847328 heartbeat IPC: 1.21001 cumulative IPC: 1.0402 (Simulation time: 0 hr 20 min 26 sec) 
Heartbeat CPU 0 instructions: 880000000 cycles: 780935427 heartbeat IPC: 1.23638 cumulative IPC: 1.04232 (Simulation time: 0 hr 20 min 38 sec) 
Heartbeat CPU 0 instructions: 890000003 cycles: 788982012 heartbeat IPC: 1.24276 cumulative IPC: 1.04445 (Simulation time: 0 hr 20 min 51 sec) 
Heartbeat CPU 0 instructions: 900000000 cycles: 797151656 heartbeat IPC: 1.22404 cumulative IPC: 1.04637 (Simulation time: 0 hr 21 min 3 sec) 
Heartbeat CPU 0 instructions: 910000002 cycles: 805320681 heartbeat IPC: 1.22414 cumulative IPC: 1.04825 (Simulation time: 0 hr 21 min 15 sec) 
Heartbeat CPU 0 instructions: 920000001 cycles: 813522751 heartbeat IPC: 1.2192 cumulative IPC: 1.05004 (Simulation time: 0 hr 21 min 27 sec) 
Heartbeat CPU 0 instructions: 930000001 cycles: 822996079 heartbeat IPC: 1.0556 cumulative IPC: 1.05011 (Simulation time: 0 hr 21 min 40 sec) 
Heartbeat CPU 0 instructions: 940000000 cycles: 833122194 heartbeat IPC: 0.987545 cumulative IPC: 1.04932 (Simulation time: 0 hr 21 min 53 sec) 
Heartbeat CPU 0 instructions: 950000000 cycles: 844183750 heartbeat IPC: 0.904032 cumulative IPC: 1.04734 (Simulation time: 0 hr 22 min 7 sec) 
Heartbeat CPU 0 instructions: 960000002 cycles: 852772499 heartbeat IPC: 1.16431 cumulative IPC: 1.04856 (Simulation time: 0 hr 22 min 20 sec) 
Heartbeat CPU 0 instructions: 970000002 cycles: 862160845 heartbeat IPC: 1.06515 cumulative IPC: 1.04875 (Simulation time: 0 hr 22 min 33 sec) 
Heartbeat CPU 0 instructions: 980000000 cycles: 874028036 heartbeat IPC: 0.842659 cumulative IPC: 1.04584 (Simulation time: 0 hr 22 min 47 sec) 
Heartbeat CPU 0 instructions: 990000000 cycles: 886149430 heartbeat IPC: 0.824988 cumulative IPC: 1.04271 (Simulation time: 0 hr 23 min 1 sec) 
Heartbeat CPU 0 instructions: 1000000002 cycles: 896426628 heartbeat IPC: 0.973028 cumulative IPC: 1.04188 (Simulation time: 0 hr 23 min 15 sec) 
Heartbeat CPU 0 instructions: 1010000003 cycles: 905901062 heartbeat IPC: 1.05547 cumulative IPC: 1.04203 (Simulation time: 0 hr 23 min 28 sec) 
Heartbeat CPU 0 instructions: 1020000000 cycles: 918758224 heartbeat IPC: 0.777776 cumulative IPC: 1.03819 (Simulation time: 0 hr 23 min 42 sec) 
Heartbeat CPU 0 instructions: 1030000002 cycles: 932757258 heartbeat IPC: 0.714335 cumulative IPC: 1.03315 (Simulation time: 0 hr 23 min 58 sec) 
Heartbeat CPU 0 instructions: 1040000003 cycles: 947822962 heartbeat IPC: 0.663759 cumulative IPC: 1.02707 (Simulation time: 0 hr 24 min 13 sec) 
Heartbeat CPU 0 instructions: 1050000000 cycles: 961782664 heartbeat IPC: 0.716347 cumulative IPC: 1.02241 (Simulation time: 0 hr 24 min 28 sec) 
Heartbeat CPU 0 instructions: 1060000002 cycles: 973752495 heartbeat IPC: 0.835434 cumulative IPC: 1.02003 (Simulation time: 0 hr 24 min 42 sec) 
Heartbeat CPU 0 instructions: 1070000001 cycles: 982978616 heartbeat IPC: 1.08388 cumulative IPC: 1.02065 (Simulation time: 0 hr 24 min 55 sec) 
Heartbeat CPU 0 instructions: 1080000002 cycles: 991579495 heartbeat IPC: 1.16267 cumulative IPC: 1.02192 (Simulation time: 0 hr 25 min 8 sec) 
Heartbeat CPU 0 instructions: 1090000001 cycles: 1003127042 heartbeat IPC: 0.865985 cumulative IPC: 1.02007 (Simulation time: 0 hr 25 min 22 sec) 
Heartbeat CPU 0 instructions: 1100000000 cycles: 1014352606 heartbeat IPC: 0.890824 cumulative IPC: 1.01859 (Simulation time: 0 hr 25 min 36 sec) 
Finished CPU 0 instructions: 1000000002 cycles: 981751066 cumulative IPC: 1.01859 (Simulation time: 0 hr 25 min 36 sec) 

ChampSim completed all CPUs

Region of Interest Statistics

CPU 0 cumulative IPC: 1.01859 instructions: 1000000002 cycles: 981751066
L1D TOTAL     ACCESS:  244412061  HIT:  238129323  MISS:    6282738
L1D LOAD      ACCESS:  180945975  HIT:  176325848  MISS:    4620127
L1D RFO       ACCESS:   63466086  HIT:   61803475  MISS:    1662611
L1D PREFETCH  ACCESS:          0  HIT:          0  MISS:          0
L1D WRITEBACK ACCESS:          0  HIT:          0  MISS:          0
L1D PREFETCH  REQUESTED:          0  ISSUED:          0  USEFUL:          0  USELESS:          0
L1D AVERAGE MISS LATENCY: 67.0769 cycles
L1I TOTAL     ACCESS:  165098170  HIT:  165094880  MISS:       3290
L1I LOAD      ACCESS:  165098170  HIT:  165094880  MISS:       3290
L1I RFO       ACCESS:          0  HIT:          0  MISS:          0
L1I PREFETCH  ACCESS:          0  HIT:          0  MISS:          0
L1I WRITEBACK ACCESS:          0  HIT:          0  MISS:          0
L1I PREFETCH  REQUESTED:          0  ISSUED:          0  USEFUL:          0  USELESS:          0
L1I AVERAGE MISS LATENCY: 67.4635 cycles
L2C TOTAL     ACCESS:   10935769  HIT:    8665341  MISS:    2270428
L2C LOAD      ACCESS:    4623262  HIT:    2862438  MISS:    1760824
L2C RFO       ACCESS:    1661409  HIT:    1159138  MISS:     502271
L2C PREFETCH  ACCESS:          0  HIT:          0  MISS:          0
L2C WRITEBACK ACCESS:    4651098  HIT:    4643765  MISS:       7333
L2C PREFETCH  REQUESTED:          0  ISSUED:          0  USEFUL:          0  USELESS:          0
L2C AVERAGE MISS LATENCY: 149.387 cycles
LLC TOTAL     ACCESS:    3838182  HIT:    2652504  MISS:    1185678
LLC LOAD      ACCESS:    1760818  HIT:     976551  MISS:     784267
LLC RFO       ACCESS:     502257  HIT:     126326  MISS:     375931
LLC PREFETCH  ACCESS:          0  HIT:          0  MISS:          0
LLC WRITEBACK ACCESS:    1575107  HIT:    1549627  MISS:      25480
LLC PREFETCH  REQUESTED:          0  ISSUED:          0  USEFUL:          0  USELESS:          0
LLC AVERAGE MISS LATENCY: 206.971 cycles
Major fault: 0 Minor fault: 11705

DRAM Statistics
 CHANNEL 0
 RQ ROW_BUFFER_HIT:      91236  ROW_BUFFER_MISS:    1068959
 DBUS_CONGESTED:     247519
 WQ ROW_BUFFER_HIT:     113374  ROW_BUFFER_MISS:     726903  FULL:          0

 AVG_CONGESTED_CYCLE: 6

CPU 0 Branch Prediction Accuracy: 92.6995% MPKI: 10.9797 Average ROB Occupancy at Mispredict: 18.5357

Branch types
NOT_BRANCH: 849602978 84.9603%
BRANCH_DIRECT_JUMP: 6669032 0.666903%
BRANCH_INDIRECT: 1417678 0.141768%
BRANCH_CONDITIONAL: 140970714 14.0971%
BRANCH_DIRECT_CALL: 442832 0.0442832%
BRANCH_INDIRECT_CALL: 226828 0.0226828%
BRANCH_RETURN: 669661 0.0669661%
BRANCH_OTHER: 0 0%

