
*** ChampSim Multicore Out-of-Order Simulator ***

Warmup Instructions: 100000000
Simulation Instructions: 1000000000
Number of CPUs: 1
LLC sets: 2048
LLC ways: 16
Off-chip DRAM Size: 4096 MB Channels: 1 Width: 64-bit Data Rate: 3200 MT/s

CPU 0 runs /scratch/user/kevin.weston/dpc3-traces/657.champsimtrace.xz
CPU 0 Bimodal branch predictor
Heartbeat CPU 0 instructions: 10000003 cycles: 3242289 heartbeat IPC: 3.08424 cumulative IPC: 3.08424 (Simulation time: 0 hr 0 min 22 sec) 
Heartbeat CPU 0 instructions: 20000003 cycles: 6524218 heartbeat IPC: 3.04699 cumulative IPC: 3.0655 (Simulation time: 0 hr 0 min 44 sec) 
Heartbeat CPU 0 instructions: 30000001 cycles: 9797683 heartbeat IPC: 3.05487 cumulative IPC: 3.06195 (Simulation time: 0 hr 1 min 6 sec) 
Heartbeat CPU 0 instructions: 40000000 cycles: 13049217 heartbeat IPC: 3.07547 cumulative IPC: 3.06532 (Simulation time: 0 hr 1 min 27 sec) 
Heartbeat CPU 0 instructions: 50000001 cycles: 16302388 heartbeat IPC: 3.07392 cumulative IPC: 3.06704 (Simulation time: 0 hr 1 min 49 sec) 
Heartbeat CPU 0 instructions: 60000000 cycles: 19551569 heartbeat IPC: 3.0777 cumulative IPC: 3.06881 (Simulation time: 0 hr 2 min 10 sec) 
Heartbeat CPU 0 instructions: 70000000 cycles: 22783578 heartbeat IPC: 3.09405 cumulative IPC: 3.07239 (Simulation time: 0 hr 2 min 32 sec) 
Heartbeat CPU 0 instructions: 80000001 cycles: 26035920 heartbeat IPC: 3.07471 cumulative IPC: 3.07268 (Simulation time: 0 hr 2 min 53 sec) 
Heartbeat CPU 0 instructions: 90000002 cycles: 29321523 heartbeat IPC: 3.04358 cumulative IPC: 3.06942 (Simulation time: 0 hr 3 min 15 sec) 
Heartbeat CPU 0 instructions: 100000003 cycles: 32601366 heartbeat IPC: 3.04893 cumulative IPC: 3.06736 (Simulation time: 0 hr 3 min 37 sec) 

Warmup complete CPU 0 instructions: 100000003 cycles: 32601366 (Simulation time: 0 hr 3 min 37 sec) 

Heartbeat CPU 0 instructions: 110000000 cycles: 42303316 heartbeat IPC: 1.03072 cumulative IPC: 1.03072 (Simulation time: 0 hr 3 min 50 sec) 
Heartbeat CPU 0 instructions: 120000000 cycles: 51316920 heartbeat IPC: 1.10943 cumulative IPC: 1.06863 (Simulation time: 0 hr 4 min 4 sec) 
Heartbeat CPU 0 instructions: 130000003 cycles: 59516792 heartbeat IPC: 1.21953 cumulative IPC: 1.1146 (Simulation time: 0 hr 4 min 16 sec) 
Heartbeat CPU 0 instructions: 140000001 cycles: 68674414 heartbeat IPC: 1.09199 cumulative IPC: 1.10886 (Simulation time: 0 hr 4 min 30 sec) 
Heartbeat CPU 0 instructions: 150000000 cycles: 76928663 heartbeat IPC: 1.2115 cumulative IPC: 1.12797 (Simulation time: 0 hr 4 min 42 sec) 
Heartbeat CPU 0 instructions: 160000000 cycles: 84944985 heartbeat IPC: 1.24745 cumulative IPC: 1.14627 (Simulation time: 0 hr 4 min 55 sec) 
Heartbeat CPU 0 instructions: 170000001 cycles: 94656130 heartbeat IPC: 1.02974 cumulative IPC: 1.12804 (Simulation time: 0 hr 5 min 9 sec) 
Heartbeat CPU 0 instructions: 180000001 cycles: 106094215 heartbeat IPC: 0.874272 cumulative IPC: 1.08854 (Simulation time: 0 hr 5 min 23 sec) 
Heartbeat CPU 0 instructions: 190000000 cycles: 118959640 heartbeat IPC: 0.777277 cumulative IPC: 1.04217 (Simulation time: 0 hr 5 min 39 sec) 
Heartbeat CPU 0 instructions: 200000000 cycles: 130837332 heartbeat IPC: 0.841914 cumulative IPC: 1.01796 (Simulation time: 0 hr 5 min 54 sec) 
Heartbeat CPU 0 instructions: 210000001 cycles: 142537467 heartbeat IPC: 0.854691 cumulative IPC: 1.00058 (Simulation time: 0 hr 6 min 9 sec) 
Heartbeat CPU 0 instructions: 220000000 cycles: 153209061 heartbeat IPC: 0.937067 cumulative IPC: 0.994961 (Simulation time: 0 hr 6 min 23 sec) 
Heartbeat CPU 0 instructions: 230000002 cycles: 163118918 heartbeat IPC: 1.0091 cumulative IPC: 0.996035 (Simulation time: 0 hr 6 min 37 sec) 
Heartbeat CPU 0 instructions: 240000001 cycles: 172898779 heartbeat IPC: 1.02251 cumulative IPC: 0.99788 (Simulation time: 0 hr 6 min 51 sec) 
Heartbeat CPU 0 instructions: 250000003 cycles: 181962340 heartbeat IPC: 1.10332 cumulative IPC: 1.00428 (Simulation time: 0 hr 7 min 5 sec) 
Heartbeat CPU 0 instructions: 260000002 cycles: 190313260 heartbeat IPC: 1.19747 cumulative IPC: 1.01451 (Simulation time: 0 hr 7 min 18 sec) 
Heartbeat CPU 0 instructions: 270000000 cycles: 198409025 heartbeat IPC: 1.23521 cumulative IPC: 1.02528 (Simulation time: 0 hr 7 min 31 sec) 
Heartbeat CPU 0 instructions: 280000000 cycles: 209782931 heartbeat IPC: 0.879205 cumulative IPC: 1.01591 (Simulation time: 0 hr 7 min 45 sec) 
Heartbeat CPU 0 instructions: 290000001 cycles: 219697432 heartbeat IPC: 1.00862 cumulative IPC: 1.01552 (Simulation time: 0 hr 7 min 59 sec) 
Heartbeat CPU 0 instructions: 300000002 cycles: 228697775 heartbeat IPC: 1.11107 cumulative IPC: 1.01991 (Simulation time: 0 hr 8 min 12 sec) 
Heartbeat CPU 0 instructions: 310000001 cycles: 237453077 heartbeat IPC: 1.14216 cumulative IPC: 1.02513 (Simulation time: 0 hr 8 min 26 sec) 
Heartbeat CPU 0 instructions: 320000003 cycles: 247173358 heartbeat IPC: 1.02878 cumulative IPC: 1.0253 (Simulation time: 0 hr 8 min 41 sec) 
Heartbeat CPU 0 instructions: 330000000 cycles: 255932351 heartbeat IPC: 1.14168 cumulative IPC: 1.02986 (Simulation time: 0 hr 8 min 53 sec) 
Heartbeat CPU 0 instructions: 340000003 cycles: 266064991 heartbeat IPC: 0.98691 cumulative IPC: 1.028 (Simulation time: 0 hr 9 min 7 sec) 
Heartbeat CPU 0 instructions: 350000001 cycles: 276786258 heartbeat IPC: 0.932725 cumulative IPC: 1.02381 (Simulation time: 0 hr 9 min 21 sec) 
Heartbeat CPU 0 instructions: 360000000 cycles: 287606777 heartbeat IPC: 0.92417 cumulative IPC: 1.01959 (Simulation time: 0 hr 9 min 36 sec) 
Heartbeat CPU 0 instructions: 370000002 cycles: 297448147 heartbeat IPC: 1.01612 cumulative IPC: 1.01946 (Simulation time: 0 hr 9 min 49 sec) 
Heartbeat CPU 0 instructions: 380000003 cycles: 306831307 heartbeat IPC: 1.06574 cumulative IPC: 1.02104 (Simulation time: 0 hr 10 min 3 sec) 
Heartbeat CPU 0 instructions: 390000002 cycles: 317861487 heartbeat IPC: 0.906603 cumulative IPC: 1.01662 (Simulation time: 0 hr 10 min 17 sec) 
Heartbeat CPU 0 instructions: 400000000 cycles: 328405386 heartbeat IPC: 0.948416 cumulative IPC: 1.01418 (Simulation time: 0 hr 10 min 32 sec) 
Heartbeat CPU 0 instructions: 410000000 cycles: 339283764 heartbeat IPC: 0.919255 cumulative IPC: 1.01082 (Simulation time: 0 hr 10 min 46 sec) 
Heartbeat CPU 0 instructions: 420000000 cycles: 350440797 heartbeat IPC: 0.896296 cumulative IPC: 1.0068 (Simulation time: 0 hr 11 min 1 sec) 
Heartbeat CPU 0 instructions: 430000001 cycles: 360409496 heartbeat IPC: 1.00314 cumulative IPC: 1.00669 (Simulation time: 0 hr 11 min 15 sec) 
Heartbeat CPU 0 instructions: 440000000 cycles: 370270342 heartbeat IPC: 1.01411 cumulative IPC: 1.0069 (Simulation time: 0 hr 11 min 30 sec) 
Heartbeat CPU 0 instructions: 450000003 cycles: 380097877 heartbeat IPC: 1.01755 cumulative IPC: 1.0072 (Simulation time: 0 hr 11 min 46 sec) 
Heartbeat CPU 0 instructions: 460000003 cycles: 389744647 heartbeat IPC: 1.03662 cumulative IPC: 1.008 (Simulation time: 0 hr 12 min 1 sec) 
Heartbeat CPU 0 instructions: 470000002 cycles: 399695807 heartbeat IPC: 1.00491 cumulative IPC: 1.00792 (Simulation time: 0 hr 12 min 15 sec) 
Heartbeat CPU 0 instructions: 480000001 cycles: 408986740 heartbeat IPC: 1.07632 cumulative IPC: 1.0096 (Simulation time: 0 hr 12 min 29 sec) 
Heartbeat CPU 0 instructions: 490000002 cycles: 418029266 heartbeat IPC: 1.10589 cumulative IPC: 1.01186 (Simulation time: 0 hr 12 min 42 sec) 
Heartbeat CPU 0 instructions: 500000002 cycles: 427684288 heartbeat IPC: 1.03573 cumulative IPC: 1.01245 (Simulation time: 0 hr 12 min 56 sec) 
Heartbeat CPU 0 instructions: 510000000 cycles: 441442889 heartbeat IPC: 0.726818 cumulative IPC: 1.00283 (Simulation time: 0 hr 13 min 15 sec) 
Heartbeat CPU 0 instructions: 520000002 cycles: 451307590 heartbeat IPC: 1.01372 cumulative IPC: 1.00309 (Simulation time: 0 hr 13 min 29 sec) 
Heartbeat CPU 0 instructions: 530000001 cycles: 460854708 heartbeat IPC: 1.04744 cumulative IPC: 1.00408 (Simulation time: 0 hr 13 min 43 sec) 
Heartbeat CPU 0 instructions: 540000000 cycles: 470094624 heartbeat IPC: 1.08226 cumulative IPC: 1.00573 (Simulation time: 0 hr 13 min 57 sec) 
Heartbeat CPU 0 instructions: 550000000 cycles: 481920565 heartbeat IPC: 0.845599 cumulative IPC: 1.00152 (Simulation time: 0 hr 14 min 12 sec) 
Heartbeat CPU 0 instructions: 560000002 cycles: 491572804 heartbeat IPC: 1.03603 cumulative IPC: 1.00224 (Simulation time: 0 hr 14 min 26 sec) 
Heartbeat CPU 0 instructions: 570000003 cycles: 501328785 heartbeat IPC: 1.02501 cumulative IPC: 1.00271 (Simulation time: 0 hr 14 min 40 sec) 
Heartbeat CPU 0 instructions: 580000002 cycles: 510985598 heartbeat IPC: 1.03554 cumulative IPC: 1.00338 (Simulation time: 0 hr 14 min 54 sec) 
Heartbeat CPU 0 instructions: 590000000 cycles: 520724904 heartbeat IPC: 1.02677 cumulative IPC: 1.00384 (Simulation time: 0 hr 15 min 8 sec) 
Heartbeat CPU 0 instructions: 600000002 cycles: 530715682 heartbeat IPC: 1.00092 cumulative IPC: 1.00379 (Simulation time: 0 hr 15 min 22 sec) 
Heartbeat CPU 0 instructions: 610000003 cycles: 540685505 heartbeat IPC: 1.00303 cumulative IPC: 1.00377 (Simulation time: 0 hr 15 min 36 sec) 
Heartbeat CPU 0 instructions: 620000000 cycles: 550076437 heartbeat IPC: 1.06486 cumulative IPC: 1.00488 (Simulation time: 0 hr 15 min 50 sec) 
Heartbeat CPU 0 instructions: 630000000 cycles: 559868452 heartbeat IPC: 1.02124 cumulative IPC: 1.00518 (Simulation time: 0 hr 16 min 4 sec) 
Heartbeat CPU 0 instructions: 640000003 cycles: 569734818 heartbeat IPC: 1.01354 cumulative IPC: 1.00534 (Simulation time: 0 hr 16 min 17 sec) 
Heartbeat CPU 0 instructions: 650000001 cycles: 578737363 heartbeat IPC: 1.1108 cumulative IPC: 1.00708 (Simulation time: 0 hr 16 min 30 sec) 
Heartbeat CPU 0 instructions: 660000000 cycles: 588594884 heartbeat IPC: 1.01445 cumulative IPC: 1.00721 (Simulation time: 0 hr 16 min 44 sec) 
Heartbeat CPU 0 instructions: 670000000 cycles: 598535413 heartbeat IPC: 1.00598 cumulative IPC: 1.00718 (Simulation time: 0 hr 16 min 58 sec) 
Heartbeat CPU 0 instructions: 680000003 cycles: 607848072 heartbeat IPC: 1.07381 cumulative IPC: 1.00826 (Simulation time: 0 hr 17 min 11 sec) 
Heartbeat CPU 0 instructions: 690000001 cycles: 618372591 heartbeat IPC: 0.950162 cumulative IPC: 1.00722 (Simulation time: 0 hr 17 min 26 sec) 
Heartbeat CPU 0 instructions: 700000001 cycles: 627859431 heartbeat IPC: 1.05409 cumulative IPC: 1.00797 (Simulation time: 0 hr 17 min 40 sec) 
Heartbeat CPU 0 instructions: 710000001 cycles: 637691145 heartbeat IPC: 1.01712 cumulative IPC: 1.00811 (Simulation time: 0 hr 17 min 55 sec) 
Heartbeat CPU 0 instructions: 720000001 cycles: 647465013 heartbeat IPC: 1.02314 cumulative IPC: 1.00835 (Simulation time: 0 hr 18 min 10 sec) 
Heartbeat CPU 0 instructions: 730000003 cycles: 656747105 heartbeat IPC: 1.07734 cumulative IPC: 1.00938 (Simulation time: 0 hr 18 min 24 sec) 
Heartbeat CPU 0 instructions: 740000001 cycles: 666424897 heartbeat IPC: 1.03329 cumulative IPC: 1.00974 (Simulation time: 0 hr 18 min 39 sec) 
Heartbeat CPU 0 instructions: 750000000 cycles: 674849095 heartbeat IPC: 1.18706 cumulative IPC: 1.01207 (Simulation time: 0 hr 18 min 52 sec) 
Heartbeat CPU 0 instructions: 760000000 cycles: 682920056 heartbeat IPC: 1.23901 cumulative IPC: 1.01489 (Simulation time: 0 hr 19 min 5 sec) 
Heartbeat CPU 0 instructions: 770000000 cycles: 691057307 heartbeat IPC: 1.22892 cumulative IPC: 1.01753 (Simulation time: 0 hr 19 min 17 sec) 
Heartbeat CPU 0 instructions: 780000001 cycles: 699045486 heartbeat IPC: 1.25185 cumulative IPC: 1.02034 (Simulation time: 0 hr 19 min 30 sec) 
Heartbeat CPU 0 instructions: 790000000 cycles: 707189240 heartbeat IPC: 1.22793 cumulative IPC: 1.02285 (Simulation time: 0 hr 19 min 43 sec) 
Heartbeat CPU 0 instructions: 800000001 cycles: 715352127 heartbeat IPC: 1.22506 cumulative IPC: 1.02526 (Simulation time: 0 hr 19 min 56 sec) 
Heartbeat CPU 0 instructions: 810000000 cycles: 723518148 heartbeat IPC: 1.22459 cumulative IPC: 1.02762 (Simulation time: 0 hr 20 min 9 sec) 
Heartbeat CPU 0 instructions: 820000001 cycles: 731596286 heartbeat IPC: 1.23791 cumulative IPC: 1.03005 (Simulation time: 0 hr 20 min 22 sec) 
Heartbeat CPU 0 instructions: 830000000 cycles: 739914867 heartbeat IPC: 1.20213 cumulative IPC: 1.03207 (Simulation time: 0 hr 20 min 34 sec) 
Heartbeat CPU 0 instructions: 840000002 cycles: 747915861 heartbeat IPC: 1.24984 cumulative IPC: 1.03451 (Simulation time: 0 hr 20 min 47 sec) 
Heartbeat CPU 0 instructions: 850000003 cycles: 756246936 heartbeat IPC: 1.20033 cumulative IPC: 1.03642 (Simulation time: 0 hr 21 min 0 sec) 
Heartbeat CPU 0 instructions: 860000003 cycles: 764399847 heartbeat IPC: 1.22656 cumulative IPC: 1.03854 (Simulation time: 0 hr 21 min 13 sec) 
Heartbeat CPU 0 instructions: 870000002 cycles: 772663743 heartbeat IPC: 1.21008 cumulative IPC: 1.04045 (Simulation time: 0 hr 21 min 26 sec) 
Heartbeat CPU 0 instructions: 880000000 cycles: 780743067 heartbeat IPC: 1.23773 cumulative IPC: 1.04258 (Simulation time: 0 hr 21 min 38 sec) 
Heartbeat CPU 0 instructions: 890000003 cycles: 788784670 heartbeat IPC: 1.24353 cumulative IPC: 1.04472 (Simulation time: 0 hr 21 min 51 sec) 
Heartbeat CPU 0 instructions: 900000000 cycles: 796953486 heartbeat IPC: 1.22417 cumulative IPC: 1.04664 (Simulation time: 0 hr 22 min 4 sec) 
Heartbeat CPU 0 instructions: 910000002 cycles: 805122841 heartbeat IPC: 1.22409 cumulative IPC: 1.04851 (Simulation time: 0 hr 22 min 17 sec) 
Heartbeat CPU 0 instructions: 920000001 cycles: 813325059 heartbeat IPC: 1.21918 cumulative IPC: 1.05031 (Simulation time: 0 hr 22 min 30 sec) 
Heartbeat CPU 0 instructions: 930000001 cycles: 822791371 heartbeat IPC: 1.05638 cumulative IPC: 1.05038 (Simulation time: 0 hr 22 min 44 sec) 
Heartbeat CPU 0 instructions: 940000000 cycles: 832868940 heartbeat IPC: 0.992303 cumulative IPC: 1.04965 (Simulation time: 0 hr 22 min 58 sec) 
Heartbeat CPU 0 instructions: 950000000 cycles: 843888652 heartbeat IPC: 0.907465 cumulative IPC: 1.04772 (Simulation time: 0 hr 23 min 12 sec) 
Heartbeat CPU 0 instructions: 960000002 cycles: 852492396 heartbeat IPC: 1.16228 cumulative IPC: 1.04892 (Simulation time: 0 hr 23 min 25 sec) 
Heartbeat CPU 0 instructions: 970000002 cycles: 861889253 heartbeat IPC: 1.06419 cumulative IPC: 1.04909 (Simulation time: 0 hr 23 min 39 sec) 
Heartbeat CPU 0 instructions: 980000000 cycles: 873758187 heartbeat IPC: 0.842535 cumulative IPC: 1.04618 (Simulation time: 0 hr 23 min 54 sec) 
Heartbeat CPU 0 instructions: 990000000 cycles: 885809801 heartbeat IPC: 0.829764 cumulative IPC: 1.04312 (Simulation time: 0 hr 24 min 9 sec) 
Heartbeat CPU 0 instructions: 1000000002 cycles: 896120184 heartbeat IPC: 0.969896 cumulative IPC: 1.04225 (Simulation time: 0 hr 24 min 23 sec) 
Heartbeat CPU 0 instructions: 1010000003 cycles: 905604537 heartbeat IPC: 1.05437 cumulative IPC: 1.04238 (Simulation time: 0 hr 24 min 37 sec) 
Heartbeat CPU 0 instructions: 1020000000 cycles: 918443887 heartbeat IPC: 0.778855 cumulative IPC: 1.03856 (Simulation time: 0 hr 24 min 52 sec) 
Heartbeat CPU 0 instructions: 1030000002 cycles: 932340536 heartbeat IPC: 0.719598 cumulative IPC: 1.03363 (Simulation time: 0 hr 25 min 8 sec) 
Heartbeat CPU 0 instructions: 1040000003 cycles: 947336832 heartbeat IPC: 0.666831 cumulative IPC: 1.02762 (Simulation time: 0 hr 25 min 24 sec) 
Heartbeat CPU 0 instructions: 1050000000 cycles: 961282045 heartbeat IPC: 0.717092 cumulative IPC: 1.02296 (Simulation time: 0 hr 25 min 39 sec) 
Heartbeat CPU 0 instructions: 1060000002 cycles: 973263042 heartbeat IPC: 0.834655 cumulative IPC: 1.02056 (Simulation time: 0 hr 25 min 54 sec) 
Heartbeat CPU 0 instructions: 1070000001 cycles: 982503636 heartbeat IPC: 1.08218 cumulative IPC: 1.02116 (Simulation time: 0 hr 26 min 7 sec) 
Heartbeat CPU 0 instructions: 1080000002 cycles: 991112880 heartbeat IPC: 1.16154 cumulative IPC: 1.02242 (Simulation time: 0 hr 26 min 20 sec) 
Heartbeat CPU 0 instructions: 1090000001 cycles: 1002694882 heartbeat IPC: 0.863409 cumulative IPC: 1.02052 (Simulation time: 0 hr 26 min 35 sec) 
Heartbeat CPU 0 instructions: 1100000000 cycles: 1013919529 heartbeat IPC: 0.890896 cumulative IPC: 1.01904 (Simulation time: 0 hr 26 min 49 sec) 
Finished CPU 0 instructions: 1000000002 cycles: 981318173 cumulative IPC: 1.01904 (Simulation time: 0 hr 26 min 49 sec) 

ChampSim completed all CPUs

Region of Interest Statistics

CPU 0 cumulative IPC: 1.01904 instructions: 1000000002 cycles: 981318173
L1D TOTAL     ACCESS:  244399565  HIT:  238116834  MISS:    6282731
L1D LOAD      ACCESS:  180937472  HIT:  176317353  MISS:    4620119
L1D RFO       ACCESS:   63462093  HIT:   61799481  MISS:    1662612
L1D PREFETCH  ACCESS:          0  HIT:          0  MISS:          0
L1D WRITEBACK ACCESS:          0  HIT:          0  MISS:          0
L1D PREFETCH  REQUESTED:          0  ISSUED:          0  USEFUL:          0  USELESS:          0
L1D AVERAGE MISS LATENCY: 66.8704 cycles
L1I TOTAL     ACCESS:  165097804  HIT:  165094514  MISS:       3290
L1I LOAD      ACCESS:  165097804  HIT:  165094514  MISS:       3290
L1I RFO       ACCESS:          0  HIT:          0  MISS:          0
L1I PREFETCH  ACCESS:          0  HIT:          0  MISS:          0
L1I WRITEBACK ACCESS:          0  HIT:          0  MISS:          0
L1I PREFETCH  REQUESTED:          0  ISSUED:          0  USEFUL:          0  USELESS:          0
L1I AVERAGE MISS LATENCY: 61.7198 cycles
L2C TOTAL     ACCESS:   10935760  HIT:    8665337  MISS:    2270423
L2C LOAD      ACCESS:    4623255  HIT:    2862435  MISS:    1760820
L2C RFO       ACCESS:    1661407  HIT:    1159136  MISS:     502271
L2C PREFETCH  ACCESS:          0  HIT:          0  MISS:          0
L2C WRITEBACK ACCESS:    4651098  HIT:    4643766  MISS:       7332
L2C PREFETCH  REQUESTED:          0  ISSUED:          0  USEFUL:          0  USELESS:          0
L2C AVERAGE MISS LATENCY: 148.81 cycles
LLC TOTAL     ACCESS:    3838176  HIT:    2680169  MISS:    1158007
LLC LOAD      ACCESS:    1760815  HIT:     985485  MISS:     775330
LLC RFO       ACCESS:     502258  HIT:     124169  MISS:     378089
LLC PREFETCH  ACCESS:          0  HIT:          0  MISS:          0
LLC WRITEBACK ACCESS:    1575103  HIT:    1570515  MISS:       4588
LLC PREFETCH  REQUESTED:          0  ISSUED:          0  USEFUL:          0  USELESS:          0
LLC AVERAGE MISS LATENCY: 210.77 cycles
Major fault: 0 Minor fault: 11705

DRAM Statistics
 CHANNEL 0
 RQ ROW_BUFFER_HIT:      87195  ROW_BUFFER_MISS:    1066222
 DBUS_CONGESTED:     259230
 WQ ROW_BUFFER_HIT:     122980  ROW_BUFFER_MISS:     741616  FULL:          0

 AVG_CONGESTED_CYCLE: 6

CPU 0 Branch Prediction Accuracy: 92.6995% MPKI: 10.9797 Average ROB Occupancy at Mispredict: 18.5764

Branch types
NOT_BRANCH: 849602978 84.9603%
BRANCH_DIRECT_JUMP: 6669032 0.666903%
BRANCH_INDIRECT: 1417678 0.141768%
BRANCH_CONDITIONAL: 140970714 14.0971%
BRANCH_DIRECT_CALL: 442832 0.0442832%
BRANCH_INDIRECT_CALL: 226828 0.0226828%
BRANCH_RETURN: 669661 0.0669661%
BRANCH_OTHER: 0 0%

