
*** ChampSim Multicore Out-of-Order Simulator ***

Warmup Instructions: 100000000
Simulation Instructions: 1000000000
Number of CPUs: 1
LLC sets: 2048
LLC ways: 16
Off-chip DRAM Size: 4096 MB Channels: 1 Width: 64-bit Data Rate: 3200 MT/s

CPU 0 runs /scratch/user/kevin.weston/dpc3-traces/657.champsimtrace.xz
CPU 0 Bimodal branch predictor
Initialize RRPV
Initialize PRRIP state
Heartbeat CPU 0 instructions: 10000003 cycles: 3242289 heartbeat IPC: 3.08424 cumulative IPC: 3.08424 (Simulation time: 0 hr 0 min 20 sec) 
Heartbeat CPU 0 instructions: 20000003 cycles: 6524218 heartbeat IPC: 3.04699 cumulative IPC: 3.0655 (Simulation time: 0 hr 0 min 41 sec) 
Heartbeat CPU 0 instructions: 30000001 cycles: 9797685 heartbeat IPC: 3.05486 cumulative IPC: 3.06195 (Simulation time: 0 hr 1 min 1 sec) 
Heartbeat CPU 0 instructions: 40000000 cycles: 13049249 heartbeat IPC: 3.07544 cumulative IPC: 3.06531 (Simulation time: 0 hr 1 min 22 sec) 
Heartbeat CPU 0 instructions: 50000001 cycles: 16302427 heartbeat IPC: 3.07392 cumulative IPC: 3.06703 (Simulation time: 0 hr 1 min 42 sec) 
Heartbeat CPU 0 instructions: 60000000 cycles: 19551592 heartbeat IPC: 3.07771 cumulative IPC: 3.0688 (Simulation time: 0 hr 2 min 2 sec) 
Heartbeat CPU 0 instructions: 70000000 cycles: 22783615 heartbeat IPC: 3.09404 cumulative IPC: 3.07238 (Simulation time: 0 hr 2 min 22 sec) 
Heartbeat CPU 0 instructions: 80000001 cycles: 26035949 heartbeat IPC: 3.07472 cumulative IPC: 3.07267 (Simulation time: 0 hr 2 min 42 sec) 
Heartbeat CPU 0 instructions: 90000002 cycles: 29321569 heartbeat IPC: 3.04357 cumulative IPC: 3.06941 (Simulation time: 0 hr 3 min 3 sec) 
Heartbeat CPU 0 instructions: 100000003 cycles: 32601394 heartbeat IPC: 3.04894 cumulative IPC: 3.06735 (Simulation time: 0 hr 3 min 23 sec) 

Warmup complete CPU 0 instructions: 100000003 cycles: 32601394 (Simulation time: 0 hr 3 min 23 sec) 

Heartbeat CPU 0 instructions: 110000000 cycles: 42291691 heartbeat IPC: 1.03196 cumulative IPC: 1.03196 (Simulation time: 0 hr 3 min 37 sec) 
Heartbeat CPU 0 instructions: 120000000 cycles: 51294943 heartbeat IPC: 1.11071 cumulative IPC: 1.06989 (Simulation time: 0 hr 3 min 49 sec) 
Heartbeat CPU 0 instructions: 130000003 cycles: 59492450 heartbeat IPC: 1.21988 cumulative IPC: 1.11561 (Simulation time: 0 hr 4 min 2 sec) 
Heartbeat CPU 0 instructions: 140000001 cycles: 68607118 heartbeat IPC: 1.09713 cumulative IPC: 1.11093 (Simulation time: 0 hr 4 min 15 sec) 
Heartbeat CPU 0 instructions: 150000000 cycles: 76850205 heartbeat IPC: 1.21314 cumulative IPC: 1.12997 (Simulation time: 0 hr 4 min 27 sec) 
Heartbeat CPU 0 instructions: 160000000 cycles: 84867636 heartbeat IPC: 1.24728 cumulative IPC: 1.14797 (Simulation time: 0 hr 4 min 39 sec) 
Heartbeat CPU 0 instructions: 170000001 cycles: 94543737 heartbeat IPC: 1.03347 cumulative IPC: 1.13008 (Simulation time: 0 hr 4 min 53 sec) 
Heartbeat CPU 0 instructions: 180000001 cycles: 106028462 heartbeat IPC: 0.870722 cumulative IPC: 1.08952 (Simulation time: 0 hr 5 min 7 sec) 
Heartbeat CPU 0 instructions: 190000000 cycles: 118975298 heartbeat IPC: 0.772389 cumulative IPC: 1.04198 (Simulation time: 0 hr 5 min 22 sec) 
Heartbeat CPU 0 instructions: 200000000 cycles: 130917136 heartbeat IPC: 0.837392 cumulative IPC: 1.01713 (Simulation time: 0 hr 5 min 37 sec) 
Heartbeat CPU 0 instructions: 210000001 cycles: 142620454 heartbeat IPC: 0.854459 cumulative IPC: 0.999827 (Simulation time: 0 hr 5 min 51 sec) 
Heartbeat CPU 0 instructions: 220000000 cycles: 153282330 heartbeat IPC: 0.937921 cumulative IPC: 0.994358 (Simulation time: 0 hr 6 min 5 sec) 
Heartbeat CPU 0 instructions: 230000002 cycles: 163184483 heartbeat IPC: 1.00988 cumulative IPC: 0.995535 (Simulation time: 0 hr 6 min 18 sec) 
Heartbeat CPU 0 instructions: 240000001 cycles: 173002249 heartbeat IPC: 1.01856 cumulative IPC: 0.997145 (Simulation time: 0 hr 6 min 32 sec) 
Heartbeat CPU 0 instructions: 250000003 cycles: 182108092 heartbeat IPC: 1.0982 cumulative IPC: 1.0033 (Simulation time: 0 hr 6 min 45 sec) 
Heartbeat CPU 0 instructions: 260000002 cycles: 190517595 heartbeat IPC: 1.18913 cumulative IPC: 1.0132 (Simulation time: 0 hr 6 min 58 sec) 
Heartbeat CPU 0 instructions: 270000000 cycles: 198661792 heartbeat IPC: 1.22787 cumulative IPC: 1.02372 (Simulation time: 0 hr 7 min 10 sec) 
Heartbeat CPU 0 instructions: 280000000 cycles: 210010597 heartbeat IPC: 0.88115 cumulative IPC: 1.0146 (Simulation time: 0 hr 7 min 24 sec) 
Heartbeat CPU 0 instructions: 290000001 cycles: 219916790 heartbeat IPC: 1.00947 cumulative IPC: 1.01433 (Simulation time: 0 hr 7 min 38 sec) 
Heartbeat CPU 0 instructions: 300000002 cycles: 228898523 heartbeat IPC: 1.11337 cumulative IPC: 1.01886 (Simulation time: 0 hr 7 min 50 sec) 
Heartbeat CPU 0 instructions: 310000001 cycles: 237659773 heartbeat IPC: 1.14139 cumulative IPC: 1.0241 (Simulation time: 0 hr 8 min 4 sec) 
Heartbeat CPU 0 instructions: 320000003 cycles: 247404821 heartbeat IPC: 1.02616 cumulative IPC: 1.02419 (Simulation time: 0 hr 8 min 18 sec) 
Heartbeat CPU 0 instructions: 330000000 cycles: 256157481 heartbeat IPC: 1.14251 cumulative IPC: 1.02882 (Simulation time: 0 hr 8 min 31 sec) 
Heartbeat CPU 0 instructions: 340000003 cycles: 266309709 heartbeat IPC: 0.985006 cumulative IPC: 1.02692 (Simulation time: 0 hr 8 min 44 sec) 
Heartbeat CPU 0 instructions: 350000001 cycles: 277066511 heartbeat IPC: 0.929644 cumulative IPC: 1.02264 (Simulation time: 0 hr 8 min 58 sec) 
Heartbeat CPU 0 instructions: 360000000 cycles: 287931546 heartbeat IPC: 0.920384 cumulative IPC: 1.01829 (Simulation time: 0 hr 9 min 12 sec) 
Heartbeat CPU 0 instructions: 370000002 cycles: 297780928 heartbeat IPC: 1.01529 cumulative IPC: 1.01818 (Simulation time: 0 hr 9 min 25 sec) 
Heartbeat CPU 0 instructions: 380000003 cycles: 307158822 heartbeat IPC: 1.06634 cumulative IPC: 1.01982 (Simulation time: 0 hr 9 min 38 sec) 
Heartbeat CPU 0 instructions: 390000002 cycles: 318161218 heartbeat IPC: 0.908893 cumulative IPC: 1.01555 (Simulation time: 0 hr 9 min 52 sec) 
Heartbeat CPU 0 instructions: 400000000 cycles: 328678601 heartbeat IPC: 0.950807 cumulative IPC: 1.01325 (Simulation time: 0 hr 10 min 6 sec) 
Heartbeat CPU 0 instructions: 410000000 cycles: 339553804 heartbeat IPC: 0.919523 cumulative IPC: 1.00993 (Simulation time: 0 hr 10 min 20 sec) 
Heartbeat CPU 0 instructions: 420000000 cycles: 350702571 heartbeat IPC: 0.89696 cumulative IPC: 1.00597 (Simulation time: 0 hr 10 min 34 sec) 
Heartbeat CPU 0 instructions: 430000001 cycles: 360675763 heartbeat IPC: 1.00269 cumulative IPC: 1.00587 (Simulation time: 0 hr 10 min 49 sec) 
Heartbeat CPU 0 instructions: 440000000 cycles: 370569942 heartbeat IPC: 1.0107 cumulative IPC: 1.00601 (Simulation time: 0 hr 11 min 3 sec) 
Heartbeat CPU 0 instructions: 450000003 cycles: 380439034 heartbeat IPC: 1.01326 cumulative IPC: 1.00622 (Simulation time: 0 hr 11 min 18 sec) 
Heartbeat CPU 0 instructions: 460000003 cycles: 390108944 heartbeat IPC: 1.03414 cumulative IPC: 1.00697 (Simulation time: 0 hr 11 min 33 sec) 
Heartbeat CPU 0 instructions: 470000002 cycles: 400028937 heartbeat IPC: 1.00807 cumulative IPC: 1.007 (Simulation time: 0 hr 11 min 46 sec) 
Heartbeat CPU 0 instructions: 480000001 cycles: 409277951 heartbeat IPC: 1.0812 cumulative IPC: 1.00882 (Simulation time: 0 hr 12 min 0 sec) 
Heartbeat CPU 0 instructions: 490000002 cycles: 418297489 heartbeat IPC: 1.1087 cumulative IPC: 1.01116 (Simulation time: 0 hr 12 min 13 sec) 
Heartbeat CPU 0 instructions: 500000002 cycles: 427920451 heartbeat IPC: 1.03918 cumulative IPC: 1.01184 (Simulation time: 0 hr 12 min 26 sec) 
Heartbeat CPU 0 instructions: 510000000 cycles: 441450954 heartbeat IPC: 0.739071 cumulative IPC: 1.00281 (Simulation time: 0 hr 12 min 44 sec) 
Heartbeat CPU 0 instructions: 520000002 cycles: 451347100 heartbeat IPC: 1.01049 cumulative IPC: 1.003 (Simulation time: 0 hr 12 min 58 sec) 
Heartbeat CPU 0 instructions: 530000001 cycles: 460947257 heartbeat IPC: 1.04165 cumulative IPC: 1.00386 (Simulation time: 0 hr 13 min 12 sec) 
Heartbeat CPU 0 instructions: 540000000 cycles: 470243600 heartbeat IPC: 1.07569 cumulative IPC: 1.00539 (Simulation time: 0 hr 13 min 25 sec) 
Heartbeat CPU 0 instructions: 550000000 cycles: 482110918 heartbeat IPC: 0.84265 cumulative IPC: 1.00109 (Simulation time: 0 hr 13 min 40 sec) 
Heartbeat CPU 0 instructions: 560000002 cycles: 491777594 heartbeat IPC: 1.03448 cumulative IPC: 1.00179 (Simulation time: 0 hr 13 min 53 sec) 
Heartbeat CPU 0 instructions: 570000003 cycles: 501582084 heartbeat IPC: 1.01994 cumulative IPC: 1.00217 (Simulation time: 0 hr 14 min 7 sec) 
Heartbeat CPU 0 instructions: 580000002 cycles: 511261466 heartbeat IPC: 1.03312 cumulative IPC: 1.0028 (Simulation time: 0 hr 14 min 20 sec) 
Heartbeat CPU 0 instructions: 590000000 cycles: 521049779 heartbeat IPC: 1.02163 cumulative IPC: 1.00318 (Simulation time: 0 hr 14 min 34 sec) 
Heartbeat CPU 0 instructions: 600000002 cycles: 531051077 heartbeat IPC: 0.99987 cumulative IPC: 1.00311 (Simulation time: 0 hr 14 min 47 sec) 
Heartbeat CPU 0 instructions: 610000003 cycles: 541016745 heartbeat IPC: 1.00345 cumulative IPC: 1.00312 (Simulation time: 0 hr 15 min 1 sec) 
Heartbeat CPU 0 instructions: 620000000 cycles: 550416478 heartbeat IPC: 1.06386 cumulative IPC: 1.00422 (Simulation time: 0 hr 15 min 14 sec) 
Heartbeat CPU 0 instructions: 630000000 cycles: 560206259 heartbeat IPC: 1.02147 cumulative IPC: 1.00454 (Simulation time: 0 hr 15 min 28 sec) 
Heartbeat CPU 0 instructions: 640000003 cycles: 570064978 heartbeat IPC: 1.01433 cumulative IPC: 1.00472 (Simulation time: 0 hr 15 min 41 sec) 
Heartbeat CPU 0 instructions: 650000001 cycles: 579117414 heartbeat IPC: 1.10467 cumulative IPC: 1.00637 (Simulation time: 0 hr 15 min 54 sec) 
Heartbeat CPU 0 instructions: 660000000 cycles: 588993081 heartbeat IPC: 1.01259 cumulative IPC: 1.00649 (Simulation time: 0 hr 16 min 7 sec) 
Heartbeat CPU 0 instructions: 670000000 cycles: 599014396 heartbeat IPC: 0.997873 cumulative IPC: 1.00633 (Simulation time: 0 hr 16 min 21 sec) 
Heartbeat CPU 0 instructions: 680000003 cycles: 608184662 heartbeat IPC: 1.09048 cumulative IPC: 1.00767 (Simulation time: 0 hr 16 min 34 sec) 
Heartbeat CPU 0 instructions: 690000001 cycles: 618712521 heartbeat IPC: 0.949861 cumulative IPC: 1.00664 (Simulation time: 0 hr 16 min 47 sec) 
Heartbeat CPU 0 instructions: 700000001 cycles: 628243995 heartbeat IPC: 1.04916 cumulative IPC: 1.00732 (Simulation time: 0 hr 17 min 2 sec) 
Heartbeat CPU 0 instructions: 710000001 cycles: 638141726 heartbeat IPC: 1.01033 cumulative IPC: 1.00736 (Simulation time: 0 hr 17 min 16 sec) 
Heartbeat CPU 0 instructions: 720000001 cycles: 647935918 heartbeat IPC: 1.02101 cumulative IPC: 1.00758 (Simulation time: 0 hr 17 min 30 sec) 
Heartbeat CPU 0 instructions: 730000003 cycles: 657214165 heartbeat IPC: 1.07779 cumulative IPC: 1.00862 (Simulation time: 0 hr 17 min 44 sec) 
Heartbeat CPU 0 instructions: 740000001 cycles: 666891716 heartbeat IPC: 1.03332 cumulative IPC: 1.009 (Simulation time: 0 hr 17 min 58 sec) 
Heartbeat CPU 0 instructions: 750000000 cycles: 675293963 heartbeat IPC: 1.19016 cumulative IPC: 1.01137 (Simulation time: 0 hr 18 min 11 sec) 
Heartbeat CPU 0 instructions: 760000000 cycles: 683352338 heartbeat IPC: 1.24094 cumulative IPC: 1.01421 (Simulation time: 0 hr 18 min 23 sec) 
Heartbeat CPU 0 instructions: 770000000 cycles: 691466759 heartbeat IPC: 1.23237 cumulative IPC: 1.0169 (Simulation time: 0 hr 18 min 35 sec) 
Heartbeat CPU 0 instructions: 780000001 cycles: 699446693 heartbeat IPC: 1.25314 cumulative IPC: 1.01973 (Simulation time: 0 hr 18 min 48 sec) 
Heartbeat CPU 0 instructions: 790000000 cycles: 707575601 heartbeat IPC: 1.23018 cumulative IPC: 1.02226 (Simulation time: 0 hr 19 min 0 sec) 
Heartbeat CPU 0 instructions: 800000001 cycles: 715707153 heartbeat IPC: 1.22978 cumulative IPC: 1.02473 (Simulation time: 0 hr 19 min 13 sec) 
Heartbeat CPU 0 instructions: 810000000 cycles: 723845699 heartbeat IPC: 1.22872 cumulative IPC: 1.02713 (Simulation time: 0 hr 19 min 25 sec) 
Heartbeat CPU 0 instructions: 820000001 cycles: 731907906 heartbeat IPC: 1.24036 cumulative IPC: 1.02959 (Simulation time: 0 hr 19 min 38 sec) 
Heartbeat CPU 0 instructions: 830000000 cycles: 740221491 heartbeat IPC: 1.20285 cumulative IPC: 1.03163 (Simulation time: 0 hr 19 min 50 sec) 
Heartbeat CPU 0 instructions: 840000002 cycles: 748207620 heartbeat IPC: 1.25217 cumulative IPC: 1.03409 (Simulation time: 0 hr 20 min 2 sec) 
Heartbeat CPU 0 instructions: 850000003 cycles: 756486133 heartbeat IPC: 1.20795 cumulative IPC: 1.03608 (Simulation time: 0 hr 20 min 15 sec) 
Heartbeat CPU 0 instructions: 860000003 cycles: 764611647 heartbeat IPC: 1.23069 cumulative IPC: 1.03824 (Simulation time: 0 hr 20 min 27 sec) 
Heartbeat CPU 0 instructions: 870000002 cycles: 772855208 heartbeat IPC: 1.21307 cumulative IPC: 1.04018 (Simulation time: 0 hr 20 min 39 sec) 
Heartbeat CPU 0 instructions: 880000000 cycles: 780938302 heartbeat IPC: 1.23715 cumulative IPC: 1.04231 (Simulation time: 0 hr 20 min 52 sec) 
Heartbeat CPU 0 instructions: 890000003 cycles: 788987908 heartbeat IPC: 1.2423 cumulative IPC: 1.04444 (Simulation time: 0 hr 21 min 4 sec) 
Heartbeat CPU 0 instructions: 900000000 cycles: 797147381 heartbeat IPC: 1.22557 cumulative IPC: 1.04637 (Simulation time: 0 hr 21 min 16 sec) 
Heartbeat CPU 0 instructions: 910000002 cycles: 805307579 heartbeat IPC: 1.22546 cumulative IPC: 1.04826 (Simulation time: 0 hr 21 min 29 sec) 
Heartbeat CPU 0 instructions: 920000001 cycles: 813493716 heartbeat IPC: 1.22158 cumulative IPC: 1.05008 (Simulation time: 0 hr 21 min 41 sec) 
Heartbeat CPU 0 instructions: 930000001 cycles: 822952445 heartbeat IPC: 1.05722 cumulative IPC: 1.05017 (Simulation time: 0 hr 21 min 54 sec) 
Heartbeat CPU 0 instructions: 940000000 cycles: 833122019 heartbeat IPC: 0.983325 cumulative IPC: 1.04932 (Simulation time: 0 hr 22 min 8 sec) 
Heartbeat CPU 0 instructions: 950000000 cycles: 844216496 heartbeat IPC: 0.901349 cumulative IPC: 1.04729 (Simulation time: 0 hr 22 min 22 sec) 
Heartbeat CPU 0 instructions: 960000002 cycles: 852849848 heartbeat IPC: 1.1583 cumulative IPC: 1.04846 (Simulation time: 0 hr 22 min 35 sec) 
Heartbeat CPU 0 instructions: 970000002 cycles: 862243416 heartbeat IPC: 1.06456 cumulative IPC: 1.04865 (Simulation time: 0 hr 22 min 48 sec) 
Heartbeat CPU 0 instructions: 980000000 cycles: 874125777 heartbeat IPC: 0.841583 cumulative IPC: 1.04572 (Simulation time: 0 hr 23 min 2 sec) 
Heartbeat CPU 0 instructions: 990000000 cycles: 886284801 heartbeat IPC: 0.822434 cumulative IPC: 1.04254 (Simulation time: 0 hr 23 min 17 sec) 
Heartbeat CPU 0 instructions: 1000000002 cycles: 896510497 heartbeat IPC: 0.977929 cumulative IPC: 1.04178 (Simulation time: 0 hr 23 min 31 sec) 
Heartbeat CPU 0 instructions: 1010000003 cycles: 906005323 heartbeat IPC: 1.05321 cumulative IPC: 1.0419 (Simulation time: 0 hr 23 min 44 sec) 
Heartbeat CPU 0 instructions: 1020000000 cycles: 918822599 heartbeat IPC: 0.780197 cumulative IPC: 1.03812 (Simulation time: 0 hr 23 min 59 sec) 
Heartbeat CPU 0 instructions: 1030000002 cycles: 932832631 heartbeat IPC: 0.713774 cumulative IPC: 1.03307 (Simulation time: 0 hr 24 min 15 sec) 
Heartbeat CPU 0 instructions: 1040000003 cycles: 947863235 heartbeat IPC: 0.665309 cumulative IPC: 1.02703 (Simulation time: 0 hr 24 min 30 sec) 
Heartbeat CPU 0 instructions: 1050000000 cycles: 961809687 heartbeat IPC: 0.717028 cumulative IPC: 1.02238 (Simulation time: 0 hr 24 min 45 sec) 
Heartbeat CPU 0 instructions: 1060000002 cycles: 973786127 heartbeat IPC: 0.834973 cumulative IPC: 1.01999 (Simulation time: 0 hr 25 min 0 sec) 
Heartbeat CPU 0 instructions: 1070000001 cycles: 983046159 heartbeat IPC: 1.07991 cumulative IPC: 1.02057 (Simulation time: 0 hr 25 min 13 sec) 
Heartbeat CPU 0 instructions: 1080000002 cycles: 991666872 heartbeat IPC: 1.16 cumulative IPC: 1.02183 (Simulation time: 0 hr 25 min 26 sec) 
Heartbeat CPU 0 instructions: 1090000001 cycles: 1003187005 heartbeat IPC: 0.868045 cumulative IPC: 1.02 (Simulation time: 0 hr 25 min 40 sec) 
Heartbeat CPU 0 instructions: 1100000000 cycles: 1014430087 heartbeat IPC: 0.889436 cumulative IPC: 1.01851 (Simulation time: 0 hr 25 min 55 sec) 
Finished CPU 0 instructions: 1000000002 cycles: 981828703 cumulative IPC: 1.01851 (Simulation time: 0 hr 25 min 55 sec) 

ChampSim completed all CPUs

Region of Interest Statistics

CPU 0 cumulative IPC: 1.01851 instructions: 1000000002 cycles: 981828703
L1D TOTAL     ACCESS:  244319531  HIT:  238036783  MISS:    6282748
L1D LOAD      ACCESS:  180849488  HIT:  176229356  MISS:    4620132
L1D RFO       ACCESS:   63470043  HIT:   61807427  MISS:    1662616
L1D PREFETCH  ACCESS:          0  HIT:          0  MISS:          0
L1D WRITEBACK ACCESS:          0  HIT:          0  MISS:          0
L1D PREFETCH  REQUESTED:          0  ISSUED:          0  USEFUL:          0  USELESS:          0
L1D AVERAGE MISS LATENCY: 66.253 cycles
L1I TOTAL     ACCESS:  165098482  HIT:  165095192  MISS:       3290
L1I LOAD      ACCESS:  165098482  HIT:  165095192  MISS:       3290
L1I RFO       ACCESS:          0  HIT:          0  MISS:          0
L1I PREFETCH  ACCESS:          0  HIT:          0  MISS:          0
L1I WRITEBACK ACCESS:          0  HIT:          0  MISS:          0
L1I PREFETCH  REQUESTED:          0  ISSUED:          0  USEFUL:          0  USELESS:          0
L1I AVERAGE MISS LATENCY: 61.4082 cycles
L2C TOTAL     ACCESS:   10935787  HIT:    8665364  MISS:    2270423
L2C LOAD      ACCESS:    4623268  HIT:    2862447  MISS:    1760821
L2C RFO       ACCESS:    1661410  HIT:    1159140  MISS:     502270
L2C PREFETCH  ACCESS:          0  HIT:          0  MISS:          0
L2C WRITEBACK ACCESS:    4651109  HIT:    4643777  MISS:       7332
L2C PREFETCH  REQUESTED:          0  ISSUED:          0  USEFUL:          0  USELESS:          0
L2C AVERAGE MISS LATENCY: 147.099 cycles
LLC TOTAL     ACCESS:    3838176  HIT:    2488255  MISS:    1349921
LLC LOAD      ACCESS:    1760815  HIT:     980122  MISS:     780693
LLC RFO       ACCESS:     502257  HIT:     130193  MISS:     372064
LLC PREFETCH  ACCESS:          0  HIT:          0  MISS:          0
LLC WRITEBACK ACCESS:    1575104  HIT:    1377940  MISS:     197164
LLC PREFETCH  REQUESTED:          0  ISSUED:          0  USEFUL:          0  USELESS:          0
LLC AVERAGE MISS LATENCY: 177.893 cycles
Major fault: 0 Minor fault: 11705
==============================
Perceptron RRIP Stats:
   Num Updates:          4167396
   Num Primary Trains:   455635
   Num Secondary Trains: 435982
==============================
primary_perceptron #0: 1 -1 1 -1 -1 -3 3 1 3 -1 3 -5 3 3 1 1 
secondary_perceptron #0: 0 -2 0 0 0 -4 4 -4 2 0 4 -4 4 2 0 -2 -4 -4 4 0 0 


DRAM Statistics
 CHANNEL 0
 RQ ROW_BUFFER_HIT:      95542  ROW_BUFFER_MISS:    1057207
 DBUS_CONGESTED:     234294
 WQ ROW_BUFFER_HIT:     113377  ROW_BUFFER_MISS:     744187  FULL:      17767

 AVG_CONGESTED_CYCLE: 6

CPU 0 Branch Prediction Accuracy: 92.6995% MPKI: 10.9797 Average ROB Occupancy at Mispredict: 18.6151

Branch types
NOT_BRANCH: 849602978 84.9603%
BRANCH_DIRECT_JUMP: 6669032 0.666903%
BRANCH_INDIRECT: 1417678 0.141768%
BRANCH_CONDITIONAL: 140970714 14.0971%
BRANCH_DIRECT_CALL: 442832 0.0442832%
BRANCH_INDIRECT_CALL: 226828 0.0226828%
BRANCH_RETURN: 669661 0.0669661%
BRANCH_OTHER: 0 0%

